@<TRIPOS>MOLECULE
ZINC01615674
   32    33     0     0     0
SMALL
USER_CHARGES
3-hydroxy-2-quinoxalin-2-ylcarbonylamino-butanoic acid
@<TRIPOS>ATOM
      1 C1         -0.0127    1.0858    0.0080 C.3       1 <0>        -0.1340
      2 C2         -0.7288    1.5792    1.2668 C.3       1 <0>         0.1156
      3 H1         -1.7514    1.2020    1.2746 H         1 <0>         0.0423
      4 C3         -0.7496    3.1091    1.2752 C.3       1 <0>         0.0634
      5 H2          0.2730    3.4864    1.2675 H         1 <0>         0.1015
      6 C4         -1.4550    3.5951    2.5151 C.2       1 <0>         0.4618
      7 O1         -2.4477    4.2769    2.4174 O.co2     1 <0>        -0.6225
      8 N1         -1.4581    3.5944    0.0884 N.am      1 <0>        -0.6695
      9 C5         -0.7987    3.7385   -1.0782 C.2       1 <0>         0.5631
     10 O2          0.3834    3.4659   -1.1455 O.2       1 <0>        -0.5307
     11 C6         -1.5157    4.2295   -2.2791 C.ar      1 <0>         0.0687
     12 C7         -0.8213    4.3832   -3.4917 C.ar      1 <0>         0.1287
     13 N2         -1.4415    4.8113   -4.5664 N.ar      1 <0>        -0.4286
     14 C8         -2.7430    5.1151   -4.5065 C.ar      1 <0>         0.0895
     15 C9         -3.4305    5.5808   -5.6404 C.ar      1 <0>        -0.0898
     16 C10        -4.7546    5.8820   -5.5510 C.ar      1 <0>        -0.0910
     17 C11        -5.4452    5.7360   -4.3480 C.ar      1 <0>        -0.1058
     18 C12        -4.8152    5.2883   -3.2290 C.ar      1 <0>        -0.0710
     19 C13        -3.4453    4.9661   -3.2812 C.ar      1 <0>         0.0765
     20 N3         -2.8016    4.5246   -2.2002 N.ar      1 <0>        -0.3886
     21 O3         -0.0377    1.1059    2.4245 O.3       1 <0>        -0.5712
     22 H3          0.0021   -0.0041    0.0020 H         1 <0>         0.0491
     23 H4          1.0099    1.4631    0.0003 H         1 <0>         0.0697
     24 H5         -0.5399    1.4469   -0.8751 H         1 <0>         0.0574
     25 H6         -2.4019    3.8120    0.1421 H         1 <0>         0.4161
     26 H7          0.2304    4.1425   -3.5406 H         1 <0>         0.1890
     27 H8         -2.9100    5.6990   -6.5793 H         1 <0>         0.1407
     28 H9         -5.2788    6.2392   -6.4250 H         1 <0>         0.1362
     29 H10        -6.4957    5.9825   -4.3044 H         1 <0>         0.1374
     30 H11        -5.3629    5.1806   -2.3045 H         1 <0>         0.1453
     31 H12        -0.4371    1.3812    3.2610 H         1 <0>         0.3952
     32 O4         -0.9804    3.2705    3.7280 O.co2     1 <0>        -0.7441
@<TRIPOS>BOND
     1    1    2 1
     2    1   22 1
     3    1   23 1
     4    1   24 1
     5    2    3 1
     6    2    4 1
     7    2   21 1
     8    4    5 1
     9    4    6 1
    10    4    8 1
    11    6    7 2
    12    6   32 1
    13    8    9 am
    14    8   25 1
    15    9   10 2
    16    9   11 1
    17   11   20 ar
    18   11   12 ar
    19   12   13 ar
    20   12   26 1
    21   13   14 ar
    22   14   19 ar
    23   14   15 ar
    24   15   16 ar
    25   15   27 1
    26   16   17 ar
    27   16   28 1
    28   17   18 ar
    29   17   29 1
    30   18   19 ar
    31   18   30 1
    32   19   20 ar
    33   21   31 1
@<TRIPOS>MOLECULE
ZINC20259714
   33    34     0     0     0
SMALL
USER_CHARGES
1-[[(4S)-2-oxothiazolidine-4-carbonyl]amino]cyclohexane-1-carboxylic acid
@<TRIPOS>ATOM
      1 C1         -0.0187    1.5258    0.0104 C.3       1 <0>        -0.1176
      2 C2          1.4167    2.0553   -0.0004 C.3       1 <0>        -0.1107
      3 C3          2.1328    1.5619   -1.2592 C.3       1 <0>        -0.1195
      4 C4          2.1536    0.0321   -1.2676 C.3       1 <0>         0.1469
      5 C5          0.7182   -0.4975   -1.2568 C.3       1 <0>        -0.1050
      6 C6          0.0021   -0.0041    0.0020 C.3       1 <0>        -0.1169
      7 C7          2.8590   -0.4539   -2.5075 C.2       1 <0>         0.4548
      8 O1          2.2204   -0.7445   -3.4912 O.co2     1 <0>        -0.6474
      9 O2          4.1967   -0.5639   -2.5191 O.co2     1 <0>        -0.7270
     10 N1          2.8622   -0.4532   -0.0808 N.am      1 <0>        -0.7157
     11 C8          4.1499   -0.1112    0.1221 C.2       1 <0>         0.4964
     12 O3          4.7222    0.5983   -0.6780 O.2       1 <0>        -0.4562
     13 C9          4.8788   -0.6104    1.3430 C.3       1 <0>         0.1124
     14 H1          4.2879   -0.4845    2.2622 H         1 <0>         0.1093
     15 C10         5.2187   -2.1015    1.1419 C.3       1 <0>        -0.0760
     16 S1          7.0457   -2.0616    1.2881 S.3       1 <0>        -0.2000
     17 C11         7.2731   -0.3178    1.5712 C.2       1 <0>         0.5730
     18 O4          8.3258    0.2672    1.7405 O.2       1 <0>        -0.4855
     19 N2          6.0436    0.2162    1.5582 N.am      1 <0>        -0.7199
     20 H2         -0.5507    1.8901   -0.8808 H         1 <0>         0.0596
     21 H3         -0.5336    1.8806    0.9154 H         1 <0>         0.0534
     22 H4          1.4018    3.1552    0.0057 H         1 <0>         0.0522
     23 H5          1.9487    1.6909    0.8908 H         1 <0>         0.0565
     24 H6          1.6007    1.9263   -2.1503 H         1 <0>         0.0611
     25 H7          3.1648    1.9427   -1.2671 H         1 <0>         0.0819
     26 H8          0.1862   -0.1331   -2.1480 H         1 <0>         0.0799
     27 H9          0.7331   -1.5974   -1.2629 H         1 <0>         0.0614
     28 H10         0.5342   -0.3684    0.8932 H         1 <0>         0.0566
     29 H11        -1.0299   -0.3849    0.0099 H         1 <0>         0.0576
     30 H12         2.3432   -1.0968    0.6448 H         1 <0>         0.3979
     31 H13         4.7273   -2.6983    1.9244 H         1 <0>         0.1239
     32 H14         4.8631   -2.4286    0.1537 H         1 <0>         0.1289
     33 H15         5.9284    1.2990    1.7142 H         1 <0>         0.4337
@<TRIPOS>BOND
     1    1    6 1
     2    1    2 1
     3    1   20 1
     4    1   21 1
     5    2    3 1
     6    2   22 1
     7    2   23 1
     8    3    4 1
     9    3   24 1
    10    3   25 1
    11    4    5 1
    12    4    7 1
    13    4   10 1
    14    5    6 1
    15    5   26 1
    16    5   27 1
    17    6   28 1
    18    6   29 1
    19    7    8 2
    20    7    9 1
    21   10   11 am
    22   10   30 1
    23   11   12 2
    24   11   13 1
    25   13   14 1
    26   13   19 1
    27   13   15 1
    28   15   16 1
    29   15   31 1
    30   15   32 1
    31   16   17 1
    32   17   18 2
    33   17   19 am
    34   19   33 1
@<TRIPOS>MOLECULE
ZINC37561484
   35    36     0     0     0
SMALL
USER_CHARGES

@<TRIPOS>ATOM
      1 C1         -0.0187    1.5258    0.0104 C.3       1 <0>        -0.0935
      2 C2          1.4167    2.0553   -0.0004 C.3       1 <0>        -0.1283
      3 C3          2.1328    1.5619   -1.2592 C.3       1 <0>         0.1457
      4 C4          2.1536    0.0321   -1.2676 C.3       1 <0>        -0.1308
      5 C5          0.7182   -0.4975   -1.2568 C.3       1 <0>        -0.0902
      6 C6          0.0021   -0.0041    0.0020 C.3       1 <0>        -0.1550
      7 C7         -1.4117   -0.5257    0.0127 C.2       1 <0>         0.4935
      8 O1         -1.6722   -1.5917   -0.5185 O.co2     1 <0>        -0.7002
      9 O2         -2.2951    0.1184    0.5526 O.co2     1 <0>        -0.7011
     10 N1          1.4243    2.0472   -2.4461 N.am      1 <0>        -0.6916
     11 C8          2.0837    2.1913   -3.6127 C.2       1 <0>         0.5746
     12 O3          3.2674    1.9184   -3.6801 O.2       1 <0>        -0.5299
     13 C9          1.3740    2.6774   -4.8014 C.2       1 <0>         0.0817
     14 N2          0.1135    2.9709   -4.7183 N.2       1 <0>        -0.2010
     15 N3         -0.5959    3.4351   -5.8307 N.am      1 <0>        -0.5571
     16 C10        -0.1213    3.2322   -7.0755 C.2       1 <0>         0.4989
     17 O4         -0.7428    3.6329   -8.0364 O.2       1 <0>        -0.5202
     18 C11         1.1855    2.5056   -7.2689 C.3       1 <0>        -0.1444
     19 C12         2.1206    2.8345   -6.0992 C.3       1 <0>        -0.1053
     20 H1         -0.5289    1.8773    0.9072 H         1 <0>         0.0704
     21 H2         -0.5459    1.8868   -0.8726 H         1 <0>         0.0511
     22 H3          1.4019    3.1452    0.0056 H         1 <0>         0.0626
     23 H4          1.9439    1.6943    0.8826 H         1 <0>         0.0767
     24 H5          3.1554    1.9392   -1.2670 H         1 <0>         0.0866
     25 H6          2.6638   -0.3194   -2.1644 H         1 <0>         0.0611
     26 H7          2.6808   -0.3290   -0.3846 H         1 <0>         0.0694
     27 H8          0.1910   -0.1364   -2.1398 H         1 <0>         0.0514
     28 H9          0.7330   -1.5874   -1.2628 H         1 <0>         0.0653
     29 H10         0.5293   -0.3651    0.8851 H         1 <0>         0.0625
     30 H11         0.4806    2.2649   -2.3924 H         1 <0>         0.4125
     31 H12        -1.4348    3.9057   -5.7054 H         1 <0>         0.4352
     32 H13         1.0033    1.4315   -7.3027 H         1 <0>         0.1109
     33 H14         1.6461    2.8271   -8.2030 H         1 <0>         0.1195
     34 H15         2.4757    3.8609   -6.1917 H         1 <0>         0.1015
     35 H16         2.9717    2.1538   -6.1131 H         1 <0>         0.1175
@<TRIPOS>BOND
     1    1    6 1
     2    1    2 1
     3    1   20 1
     4    1   21 1
     5    2    3 1
     6    2   22 1
     7    2   23 1
     8    3    4 1
     9    3   10 1
    10    3   24 1
    11    4    5 1
    12    4   25 1
    13    4   26 1
    14    5    6 1
    15    5   27 1
    16    5   28 1
    17    6    7 1
    18    6   29 1
    19    7    8 2
    20    7    9 1
    21   10   11 am
    22   10   30 1
    23   11   12 2
    24   11   13 1
    25   13   19 1
    26   13   14 2
    27   14   15 1
    28   15   16 am
    29   15   31 1
    30   16   17 2
    31   16   18 1
    32   18   19 1
    33   18   32 1
    34   18   33 1
    35   19   34 1
    36   19   35 1
@<TRIPOS>MOLECULE
ZINC41545265
   30    31     0     0     0
SMALL
USER_CHARGES

@<TRIPOS>ATOM
      1 C1         -0.0187    1.5258    0.0104 C.3       1 <0>        -0.1656
      2 C2          0.0021   -0.0041    0.0020 C.3       1 <0>         0.0896
      3 C3          0.7036   -0.4896   -1.2412 C.2       1 <0>         0.5026
      4 O1          0.0651   -0.7448   -2.2404 O.2       1 <0>        -0.4585
      5 N1          2.0450   -0.6385   -1.2379 N.am      1 <0>        -0.6626
      6 C4          2.7497   -0.4605   -0.0395 C.ar      1 <0>         0.0969
      7 C5          4.1331   -0.3804   -0.0412 C.ar      1 <0>        -0.1291
      8 C6          4.8128   -0.1914    1.1480 C.ar      1 <0>        -0.1127
      9 C7          4.1161   -0.0819    2.3374 C.ar      1 <0>        -0.1133
     10 C8          2.7358   -0.1661    2.3463 C.ar      1 <0>        -0.1025
     11 C9          2.0487   -0.3610    1.1602 C.ar      1 <0>         0.0810
     12 O2          0.6935   -0.4768    1.1602 O.3       1 <0>        -0.2868
     13 C10        -1.4120   -0.5249    0.0147 C.2       1 <0>         0.5221
     14 O3         -1.9609   -0.8148   -1.0272 O.2       1 <0>        -0.5101
     15 N2         -2.0668   -0.6685    1.1840 N.am      1 <0>        -0.6783
     16 C11        -3.4414   -1.1749    1.1963 C.3       1 <0>         0.0484
     17 C12        -3.9401   -1.2398    2.6169 C.2       1 <0>         0.4916
     18 O4         -3.2145   -0.8952    3.5341 O.co2     1 <0>        -0.6888
     19 O5         -5.0692   -1.6371    2.8491 O.co2     1 <0>        -0.6870
     20 H1          1.0039    1.9031    0.0027 H         1 <0>         0.0750
     21 H2         -0.5459    1.8868   -0.8726 H         1 <0>         0.0879
     22 H3         -0.5289    1.8773    0.9072 H         1 <0>         0.0939
     23 H4          2.5156   -0.8663   -2.0549 H         1 <0>         0.4153
     24 H5          4.6792   -0.4656   -0.9691 H         1 <0>         0.1311
     25 H6          5.8910   -0.1295    1.1479 H         1 <0>         0.1300
     26 H7          4.6519    0.0695    3.2628 H         1 <0>         0.1335
     27 H8          2.1946   -0.0799    3.2769 H         1 <0>         0.1437
     28 H9         -1.6278   -0.4367    2.0173 H         1 <0>         0.4142
     29 H10        -4.0797   -0.5073    0.6174 H         1 <0>         0.0698
     30 H11        -3.4653   -2.1721    0.7569 H         1 <0>         0.0687
@<TRIPOS>BOND
     1    1    2 1
     2    1   20 1
     3    1   21 1
     4    1   22 1
     5    2   12 1
     6    2    3 1
     7    2   13 1
     8    3    4 2
     9    3    5 am
    10    5    6 1
    11    5   23 1
    12    6   11 ar
    13    6    7 ar
    14    7    8 ar
    15    7   24 1
    16    8    9 ar
    17    8   25 1
    18    9   10 ar
    19    9   26 1
    20   10   11 ar
    21   10   27 1
    22   11   12 1
    23   13   14 2
    24   13   15 am
    25   15   16 1
    26   15   28 1
    27   16   17 1
    28   16   29 1
    29   16   30 1
    30   17   18 2
    31   17   19 1
@<TRIPOS>MOLECULE
ZINC50215335
   33    33     0     0     0
SMALL
USER_CHARGES

@<TRIPOS>ATOM
      1 C1         -0.0187    1.5258    0.0104 C.3       1 <0>        -0.1642
      2 C2          0.0021   -0.0041    0.0020 C.3       1 <0>         0.1287
      3 N1          0.6878   -0.4765   -1.2033 N.am      1 <0>        -0.7395
      4 C3          0.8268   -1.7986   -1.4250 C.2       1 <0>         0.6926
      5 O1          0.3834   -2.5989   -0.6250 O.2       1 <0>        -0.5250
      6 N2          1.4577   -2.2333   -2.5339 N.am      1 <0>        -0.6893
      7 C4          1.5967   -3.5554   -2.7556 C.2       1 <0>         0.5046
      8 O2          1.1544   -4.3537   -1.9576 O.2       1 <0>        -0.4254
      9 C5          2.3021   -4.0414   -3.9955 C.3       1 <0>         0.1445
     10 H1          3.3247   -3.6641   -4.0032 H         1 <0>         0.1321
     11 C6          1.5621   -3.5346   -5.2350 C.3       1 <0>        -0.1579
     12 N3          2.3220   -5.5062   -4.0036 N.pl3     1 <0>        -0.3713
     13 C7          3.4151   -6.2933   -4.0128 C.2       1 <0>         0.0718
     14 C8          2.9646   -7.5957   -4.0179 C.2       1 <0>        -0.0852
     15 N4          1.6194   -7.5752   -4.0116 N.2       1 <0>        -0.1973
     16 N5          1.2072   -6.3559   -3.9970 N.2       1 <0>        -0.0858
     17 C9          3.8090   -8.8005   -4.0287 C.2       1 <0>         0.5619
     18 O3          5.0278   -8.6933   -4.0340 O.co2     1 <0>        -0.6836
     19 O4          3.2925   -9.9096   -4.0323 O.co2     1 <0>        -0.6683
     20 C10         4.8517   -5.8381   -4.0173 C.3       1 <0>        -0.0796
     21 H2          1.0039    1.9031    0.0027 H         1 <0>         0.0623
     22 H3         -0.5459    1.8868   -0.8726 H         1 <0>         0.0623
     23 H4         -0.5289    1.8773    0.9072 H         1 <0>         0.0766
     24 H5          0.5293   -0.3651    0.8851 H         1 <0>         0.0694
     25 H6         -1.0205   -0.3814    0.0098 H         1 <0>         0.0695
     26 H7          1.0417    0.1622   -1.8418 H         1 <0>         0.3978
     27 H8          1.8116   -1.5946   -3.1724 H         1 <0>         0.4082
     28 H9          1.5473   -2.4447   -5.2290 H         1 <0>         0.0796
     29 H10         2.0723   -3.8861   -6.1318 H         1 <0>         0.0826
     30 H11         0.5395   -3.9118   -5.2273 H         1 <0>         0.0807
     31 H12         5.2029   -5.7336   -2.9907 H         1 <0>         0.0769
     32 H13         5.4644   -6.5741   -4.5378 H         1 <0>         0.1159
     33 H14         4.9268   -4.8773   -4.5265 H         1 <0>         0.0546
@<TRIPOS>BOND
     1    1    2 1
     2    1   21 1
     3    1   22 1
     4    1   23 1
     5    2    3 1
     6    2   24 1
     7    2   25 1
     8    3    4 am
     9    3   26 1
    10    4    5 2
    11    4    6 am
    12    6    7 am
    13    6   27 1
    14    7    8 2
    15    7    9 1
    16    9   10 1
    17    9   11 1
    18    9   12 1
    19   11   28 1
    20   11   29 1
    21   11   30 1
    22   12   16 1
    23   12   13 1
    24   13   14 2
    25   13   20 1
    26   14   15 1
    27   14   17 1
    28   15   16 2
    29   17   18 2
    30   17   19 1
    31   20   31 1
    32   20   32 1
    33   20   33 1
@<TRIPOS>MOLECULE
ZINC04716685
   30    31     0     0     0
SMALL
USER_CHARGES
2-[(2-oxo-3,4-dihydro-1H-quinolin-6-yl)sulfonylamino]acetic acid
@<TRIPOS>ATOM
      1 C1          2.3321    0.6458   -2.5974 C.ar      1 <0>         0.0135
      2 C2          3.6433    0.9497   -2.9086 C.ar      1 <0>        -0.1711
      3 C3          4.6724    0.1584   -2.4166 C.ar      1 <0>         0.2083
      4 C4          4.3800   -0.9334   -1.6094 C.ar      1 <0>        -0.1487
      5 C5          3.0681   -1.2296   -1.2984 C.ar      1 <0>         0.0190
      6 C6          2.0448   -0.4390   -1.7897 C.ar      1 <0>        -0.6923
      7 S1          0.3712   -0.8195   -1.3912 S.o2      1 <0>         2.6961
      8 O1          0.3341   -2.2040   -1.0735 O.2       1 <0>        -0.9682
      9 O2         -0.4300   -0.2519   -2.4184 O.2       1 <0>        -0.9619
     10 N1          0.0021   -0.0041    0.0020 N.pl3     1 <0>        -1.0936
     11 C7         -0.0178    1.4608    0.0101 C.3       1 <0>         0.0734
     12 C8         -0.7232    1.9468    1.2500 C.2       1 <0>         0.4643
     13 O3         -1.1640    1.1512    2.0453 O.co2     1 <0>        -0.6285
     14 C9          5.4973   -1.7913   -1.0752 C.3       1 <0>        -0.0778
     15 C10         6.6267   -1.8585   -2.1038 C.3       1 <0>        -0.1390
     16 C11         6.9624   -0.4735   -2.5875 C.2       1 <0>         0.5231
     17 O4          8.1127   -0.1932   -2.8512 O.2       1 <0>        -0.5249
     18 N2          6.0015    0.4574   -2.7314 N.am      1 <0>        -0.6636
     19 H1          1.5305    1.2586   -2.9825 H         1 <0>         0.1494
     20 H2          3.8673    1.7994   -3.5365 H         1 <0>         0.1391
     21 H3          2.8405   -2.0787   -0.6710 H         1 <0>         0.1482
     22 H4         -0.2010   -0.4963    0.8128 H         1 <0>         0.4246
     23 H5          1.0048    1.8381    0.0023 H         1 <0>         0.0685
     24 H6         -0.5450    1.8219   -0.8730 H         1 <0>         0.0847
     25 H7          5.8754   -1.3595   -0.1485 H         1 <0>         0.0870
     26 H8          5.1227   -2.7963   -0.8812 H         1 <0>         0.0976
     27 H9          7.5085   -2.3053   -1.6446 H         1 <0>         0.1120
     28 H10         6.3108   -2.4704   -2.9487 H         1 <0>         0.1061
     29 H11         6.2324    1.3419   -3.0557 H         1 <0>         0.4139
     30 O5         -0.8617    3.2635    1.4708 O.co2     1 <0>        -0.7593
@<TRIPOS>BOND
     1    1    6 ar
     2    1    2 ar
     3    1   19 1
     4    2    3 ar
     5    2   20 1
     6    3   18 1
     7    3    4 ar
     8    4    5 ar
     9    4   14 1
    10    5    6 ar
    11    5   21 1
    12    6    7 1
    13    7    8 2
    14    7    9 2
    15    7   10 1
    16   10   11 1
    17   10   22 1
    18   11   12 1
    19   11   23 1
    20   11   24 1
    21   12   13 2
    22   12   30 1
    23   14   15 1
    24   14   25 1
    25   14   26 1
    26   15   16 1
    27   15   27 1
    28   15   28 1
    29   16   17 2
    30   16   18 am
    31   18   29 1
@<TRIPOS>MOLECULE
ZINC36277628
   27    28     0     0     0
SMALL
USER_CHARGES

@<TRIPOS>ATOM
      1 C1         -0.0184    1.5028    0.0103 C.3       1 <0>        -0.0640
      2 C2          0.0021   -0.0041    0.0020 C.2       1 <0>        -0.1581
      3 C3         -1.0398   -0.8484    0.0020 C.2       1 <0>        -0.0990
      4 C4         -0.7926   -2.2798   -0.0069 C.ar      1 <0>        -0.2608
      5 C5         -1.7157   -3.3620   -0.0092 C.ar      1 <0>         0.5120
      6 N1         -1.2560   -4.6025   -0.0183 N.ar      1 <0>        -0.5677
      7 C6          0.0382   -4.8735   -0.0253 C.ar      1 <0>         0.4365
      8 N2          0.9425   -3.9119   -0.0232 N.ar      1 <0>        -0.5286
      9 C7          0.5707   -2.6468   -0.0148 C.ar      1 <0>         0.1642
     10 S1          1.4171   -1.0886   -0.0179 S.3       1 <0>         0.0951
     11 Cl1         0.5593   -6.5295   -0.0370 Cl        1 <0>         0.0288
     12 N3         -3.0775   -3.1204   -0.0016 N.pl3     1 <0>        -0.6424
     13 C8         -4.0204   -4.2416   -0.0041 C.3       1 <0>         0.0688
     14 H1         -3.6127   -5.0579   -0.6003 H         1 <0>         0.1025
     15 C9         -5.3520   -3.7868   -0.6050 C.3       1 <0>         0.0839
     16 O1         -5.9429   -2.7977    0.2402 O.3       1 <0>        -0.5527
     17 C10        -4.2426   -4.7142    1.4095 C.2       1 <0>         0.5025
     18 O2         -4.1582   -3.9263    2.3361 O.co2     1 <0>        -0.6764
     19 O3         -4.5068   -5.8845    1.6266 O.co2     1 <0>        -0.6936
     20 H2          1.0042    1.8801    0.0026 H         1 <0>         0.0725
     21 H3         -0.5455    1.8639   -0.8728 H         1 <0>         0.0792
     22 H4         -0.5286    1.8543    0.9071 H         1 <0>         0.0807
     23 H5         -2.0508   -0.4686    0.0088 H         1 <0>         0.1355
     24 H6         -3.4082   -2.2085    0.0053 H         1 <0>         0.4131
     25 H7         -5.1783   -3.3628   -1.5940 H         1 <0>         0.0394
     26 H8         -6.0235   -4.6413   -0.6888 H         1 <0>         0.0616
     27 H9         -6.7919   -2.4631   -0.0799 H         1 <0>         0.3670
@<TRIPOS>BOND
     1    1    2 1
     2    1   20 1
     3    1   21 1
     4    1   22 1
     5    2   10 1
     6    2    3 2
     7    3    4 1
     8    3   23 1
     9    4    9 ar
    10    4    5 ar
    11    5    6 ar
    12    5   12 1
    13    6    7 ar
    14    7    8 ar
    15    7   11 1
    16    8    9 ar
    17    9   10 1
    18   12   13 1
    19   12   24 1
    20   13   14 1
    21   13   15 1
    22   13   17 1
    23   15   16 1
    24   15   25 1
    25   15   26 1
    26   16   27 1
    27   17   18 2
    28   17   19 1
@<TRIPOS>MOLECULE
ZINC40577096
   39    40     0     0     0
SMALL
USER_CHARGES

@<TRIPOS>ATOM
      1 C1         -0.0178    1.4608    0.0101 C.3       1 <0>         0.1139
      2 N1          0.0021   -0.0041    0.0020 N.pl3     1 <0>        -0.3871
      3 C2          0.0079   -0.7976   -1.1005 C.2       1 <0>        -0.0120
      4 C3          0.0273   -2.0870   -0.6771 C.2       1 <0>         0.0495
      5 C4          0.0335   -2.0788    0.7252 C.2       1 <0>         0.0579
      6 N2          0.0246   -0.8345    1.1298 N.2       1 <0>        -0.2932
      7 N3          0.0387   -3.2301   -1.4998 N.am      1 <0>        -0.6709
      8 C5          0.0579   -4.4587   -0.9462 C.2       1 <0>         0.7168
      9 O1          0.0654   -4.5804    0.2637 O.2       1 <0>        -0.5537
     10 N4          0.0688   -5.5526   -1.7335 N.am      1 <0>        -0.7109
     11 C6          0.0897   -6.8881   -1.1316 C.3       1 <0>         0.1285
     12 C7         -1.1292   -7.0343   -0.1980 C.3       1 <0>        -0.0984
     13 C8         -2.3205   -6.4013   -0.8647 C.3       1 <0>        -0.1181
     14 C9         -3.1641   -7.4199   -1.6549 C.3       1 <0>        -0.1117
     15 C10        -2.3030   -8.4208   -2.4489 C.3       1 <0>        -0.1163
     16 C11        -1.1283   -7.7632   -3.1212 C.3       1 <0>        -0.1170
     17 C12         0.0980   -7.8834   -2.1934 C.3       1 <0>        -0.1062
     18 C13         1.3478   -7.0351   -0.3151 C.2       1 <0>         0.4985
     19 O2          2.1421   -6.1126   -0.2476 O.co2     1 <0>        -0.6741
     20 O3          1.5713   -8.0766    0.2780 O.co2     1 <0>        -0.7024
     21 H1          1.0048    1.8381    0.0023 H         1 <0>         0.0678
     22 H2         -0.5450    1.8219   -0.8730 H         1 <0>         0.0809
     23 H3         -0.5280    1.8123    0.9069 H         1 <0>         0.0843
     24 H4         -0.0016   -0.4633   -2.1275 H         1 <0>         0.1703
     25 H5          0.0482   -2.9507    1.3625 H         1 <0>         0.2099
     26 H6          0.0327   -3.1331   -2.4649 H         1 <0>         0.3964
     27 H7          0.0628   -5.4556   -2.6986 H         1 <0>         0.3800
     28 H8         -1.3285   -8.0909   -0.0188 H         1 <0>         0.0620
     29 H9         -0.9286   -6.5310    0.7477 H         1 <0>         0.0753
     30 H10        -2.9478   -5.9400   -0.1020 H         1 <0>         0.0465
     31 H11        -1.9720   -5.6267   -1.5478 H         1 <0>         0.0649
     32 H12        -3.7921   -7.9732   -0.9565 H         1 <0>         0.0514
     33 H13        -3.8067   -6.8800   -2.3503 H         1 <0>         0.0481
     34 H14        -1.9352   -9.1879   -1.7674 H         1 <0>         0.0633
     35 H15        -2.9241   -8.8952   -3.2087 H         1 <0>         0.0499
     36 H16        -0.9216   -8.2625   -4.0678 H         1 <0>         0.0566
     37 H17        -1.3505   -6.7112   -3.2999 H         1 <0>         0.0613
     38 H18         1.0035   -7.7587   -2.7872 H         1 <0>         0.0560
     39 H19         0.1058   -8.8772   -1.7457 H         1 <0>         0.0822
@<TRIPOS>BOND
     1    1    2 1
     2    1   21 1
     3    1   22 1
     4    1   23 1
     5    2    6 1
     6    2    3 1
     7    3    4 2
     8    3   24 1
     9    4    5 1
    10    4    7 1
    11    5    6 2
    12    5   25 1
    13    7    8 am
    14    7   26 1
    15    8    9 2
    16    8   10 am
    17   10   11 1
    18   10   27 1
    19   11   17 1
    20   11   12 1
    21   11   18 1
    22   12   13 1
    23   12   28 1
    24   12   29 1
    25   13   14 1
    26   13   30 1
    27   13   31 1
    28   14   15 1
    29   14   32 1
    30   14   33 1
    31   15   16 1
    32   15   34 1
    33   15   35 1
    34   16   17 1
    35   16   36 1
    36   16   37 1
    37   17   38 1
    38   17   39 1
    39   18   19 2
    40   18   20 1
@<TRIPOS>MOLECULE
ZINC48818891
   28    29     0     0     0
SMALL
USER_CHARGES

@<TRIPOS>ATOM
      1 C1         -0.0184    1.5028    0.0103 C.3       1 <0>        -0.0674
      2 C2          0.0021   -0.0041    0.0020 C.2       1 <0>         0.0245
      3 C3          0.0080   -0.8201   -1.1315 C.2       1 <0>        -0.1469
      4 C4          0.0278   -2.1175   -0.6490 C.2       1 <0>        -0.0249
      5 N1          0.0326   -2.0181    0.7134 N.pl3     1 <0>        -0.3801
      6 H1          0.0459   -2.7680    1.3286 H         1 <0>         0.4444
      7 N2          0.0231   -0.7801    1.0555 N.2       1 <0>        -0.2693
      8 C5          0.0406   -3.3552   -1.4441 C.2       1 <0>         0.5810
      9 O1          0.0340   -3.2976   -2.6592 O.2       1 <0>        -0.4567
     10 N3          0.0597   -4.5529   -0.8263 N.am      1 <0>        -0.6086
     11 C6          0.0718   -5.7236   -1.5784 C.2       1 <0>         0.2188
     12 N4          0.0733   -5.8751   -2.8881 N.2       1 <0>        -0.2527
     13 N5          0.0864   -7.1389   -3.4314 N.2       1 <0>        -0.4346
     14 C7          0.0974   -8.1938   -2.6387 C.2       1 <0>         0.4438
     15 S1          0.0974   -7.4226   -1.0274 S.3       1 <0>        -0.1069
     16 N6          0.1113   -9.5429   -2.9688 N.2       1 <0>        -1.0346
     17 S2          0.1166  -10.0062   -4.5586 S.o2      1 <0>         2.5626
     18 O2         -1.1227   -9.5416   -5.0759 O.2       1 <0>        -1.0019
     19 O3          1.3464   -9.5163   -5.0750 O.2       1 <0>        -1.0019
     20 C8          0.1351  -11.8196   -4.5156 C.3       1 <0>        -0.6422
     21 H2          1.0042    1.8801    0.0026 H         1 <0>         0.0746
     22 H3         -0.5455    1.8639   -0.8728 H         1 <0>         0.0781
     23 H4         -0.5286    1.8543    0.9071 H         1 <0>         0.0721
     24 H5         -0.0014   -0.5058   -2.1647 H         1 <0>         0.1677
     25 H6          0.0651   -4.5988    0.1426 H         1 <0>         0.4129
     26 H7         -0.7514  -12.1798   -3.9936 H         1 <0>         0.1190
     27 H8          0.1394  -12.2072   -5.5344 H         1 <0>         0.1102
     28 H9          1.0285  -12.1615   -3.9930 H         1 <0>         0.1190
@<TRIPOS>BOND
     1    1    2 1
     2    1   21 1
     3    1   22 1
     4    1   23 1
     5    2    7 2
     6    2    3 1
     7    3    4 2
     8    3   24 1
     9    4    5 1
    10    4    8 1
    11    5    6 1
    12    5    7 1
    13    8    9 2
    14    8   10 am
    15   10   11 1
    16   10   25 1
    17   11   15 1
    18   11   12 2
    19   12   13 1
    20   13   14 2
    21   14   15 1
    22   14   16 1
    23   16   17 1
    24   17   18 2
    25   17   19 2
    26   17   20 1
    27   20   26 1
    28   20   27 1
    29   20   28 1
@<TRIPOS>MOLECULE
ZINC60604325
   34    35     0     0     0
SMALL
USER_CHARGES

@<TRIPOS>ATOM
      1 C1         -0.0178    1.4608    0.0101 C.3       1 <0>         0.0891
      2 N1          0.0021   -0.0041    0.0020 N.am      1 <0>        -0.6199
      3 C2          1.2806   -0.7192   -0.0140 C.3       1 <0>         0.0712
      4 C3         -1.1558   -0.6938    0.0094 C.2       1 <0>         0.5082
      5 O1         -2.2142   -0.1017    0.0227 O.2       1 <0>        -0.5311
      6 C4         -1.1354   -2.2006    0.0011 C.3       1 <0>         0.1030
      7 N2         -2.5098   -2.7077    0.0115 N.am      1 <0>        -0.7183
      8 C5         -2.7381   -4.0360    0.0065 C.2       1 <0>         0.5669
      9 O2         -1.8039   -4.8130   -0.0066 O.2       1 <0>        -0.5326
     10 C6         -4.1278   -4.5487    0.0170 C.ar      1 <0>        -0.0809
     11 C7         -5.2020   -3.6455    0.0264 C.ar      1 <0>        -0.1653
     12 C8         -6.4882   -4.0921    0.0361 C.ar      1 <0>        -0.0120
     13 C9         -6.7496   -5.4696    0.0369 C.ar      1 <0>        -0.2216
     14 C10        -5.6728   -6.3947    0.0275 C.ar      1 <0>         0.2134
     15 C11        -4.3551   -5.9151    0.0119 C.ar      1 <0>        -0.0710
     16 N3         -5.9398   -7.7084    0.0280 N.2       1 <0>        -0.5502
     17 C12        -7.1899   -8.1450    0.0370 C.2       1 <0>         0.5085
     18 N4         -8.2433   -7.3113    0.0457 N.pl3     1 <0>        -0.6013
     19 H1         -9.1420   -7.6762    0.0518 H         1 <0>         0.4204
     20 C13        -8.0682   -5.9721    0.0464 C.2       1 <0>         0.5038
     21 O3         -9.1234   -5.1390    0.0551 O.3       1 <0>        -0.6126
     22 S1         -7.4741   -9.8332    0.0371 S.2       1 <0>        -0.7125
     23 H2          1.0048    1.8381    0.0023 H         1 <0>         0.0769
     24 H3         -0.5450    1.8219   -0.8730 H         1 <0>         0.0628
     25 H4         -0.5280    1.8123    0.9069 H         1 <0>         0.0629
     26 H5          1.6074   -0.9021    1.0096 H         1 <0>         0.0627
     27 H6          1.1583   -1.6705   -0.5318 H         1 <0>         0.0779
     28 H7          2.0272   -0.1171   -0.5318 H         1 <0>         0.0766
     29 H8         -0.6252   -2.5521   -0.8957 H         1 <0>         0.1010
     30 H9         -0.6082   -2.5617    0.8841 H         1 <0>         0.1010
     31 H10        -3.2555   -2.0875    0.0219 H         1 <0>         0.4136
     32 H11        -5.0061   -2.5834    0.0262 H         1 <0>         0.1251
     33 H12        -7.3058   -3.3864    0.0436 H         1 <0>         0.1366
     34 H13        -3.5245   -6.6053   -0.0001 H         1 <0>         0.1478
@<TRIPOS>BOND
     1    1    2 1
     2    1   23 1
     3    1   24 1
     4    1   25 1
     5    2    3 1
     6    2    4 am
     7    3   26 1
     8    3   27 1
     9    3   28 1
    10    4    5 2
    11    4    6 1
    12    6    7 1
    13    6   29 1
    14    6   30 1
    15    7    8 am
    16    7   31 1
    17    8    9 2
    18    8   10 1
    19   10   15 ar
    20   10   11 ar
    21   11   12 ar
    22   11   32 1
    23   12   13 ar
    24   12   33 1
    25   13   20 2
    26   13   14 ar
    27   14   15 ar
    28   14   16 2
    29   15   34 1
    30   16   17 1
    31   17   18 1
    32   17   22 2
    33   18   19 1
    34   18   20 1
    35   20   21 1
@<TRIPOS>MOLECULE
ZINC06094355
   27    29     0     0     0
SMALL
USER_CHARGES
amino-dioxo-BLAHsulfonic acid
@<TRIPOS>ATOM
      1 C1          1.1706    1.7810    0.0004 C.ar      1 <0>        -0.1711
      2 C2         -0.0126    1.0758    0.0080 C.ar      1 <0>        -0.0258
      3 C3         -1.2357    1.7604    0.0175 C.ar      1 <0>        -0.1433
      4 C4         -1.2316    3.1696    0.0299 C.ar      1 <0>         0.0818
      5 C5         -0.0088    3.8781    0.0221 C.ar      1 <0>        -0.1852
      6 C6          1.1847    3.1687    0.0073 C.ar      1 <0>         0.0070
      7 C7         -0.0444    5.3473    0.0303 C.2       1 <0>         0.5789
      8 O1          0.9957    5.9779    0.0242 O.2       1 <0>        -0.5152
      9 N1         -1.2227    5.9988    0.0451 N.am      1 <0>        -0.6678
     10 C8         -2.4039    5.3534    0.0528 C.2       1 <0>         0.5786
     11 O2         -3.4405    5.9906    0.0666 O.2       1 <0>        -0.5059
     12 C9         -2.4504    3.8878    0.0454 C.ar      1 <0>        -0.2710
     13 C10        -3.6536    3.1884    0.0526 C.ar      1 <0>         0.1473
     14 C11        -3.6587    1.8055    0.0452 C.ar      1 <0>        -0.7851
     15 C12        -2.4765    1.0799    0.0301 C.ar      1 <0>         0.3736
     16 N2         -2.5103   -0.3019    0.0230 N.pl3     1 <0>        -0.8313
     17 S1         -5.1978    0.9479    0.0558 S.o2      1 <0>         2.6965
     18 O3         -5.6368    0.8847   -1.2942 O.2       1 <0>        -1.0467
     19 O4         -5.0094   -0.2148    0.8508 O.2       1 <0>        -1.0552
     20 H1          2.1068    1.2427   -0.0114 H         1 <0>         0.1359
     21 H2          0.0021   -0.0041    0.0020 H         1 <0>         0.1324
     22 H3          2.1260    3.6980    0.0008 H         1 <0>         0.1421
     23 H4         -1.2202    6.9688    0.0506 H         1 <0>         0.4144
     24 H5         -4.5887    3.7287    0.0644 H         1 <0>         0.1549
     25 H6         -3.3619   -0.7662    0.0286 H         1 <0>         0.4230
     26 H7         -1.6824   -0.8072    0.0124 H         1 <0>         0.4016
     27 O5         -6.1965    1.8248    0.7974 O.3       1 <0>        -1.0647
@<TRIPOS>BOND
     1    1    6 ar
     2    1    2 ar
     3    1   20 1
     4    2    3 ar
     5    2   21 1
     6    3   15 ar
     7    3    4 ar
     8    4   12 ar
     9    4    5 ar
    10    5    6 ar
    11    5    7 1
    12    6   22 1
    13    7    8 2
    14    7    9 am
    15    9   10 am
    16    9   23 1
    17   10   11 2
    18   10   12 1
    19   12   13 ar
    20   13   14 ar
    21   13   24 1
    22   14   15 ar
    23   14   17 1
    24   15   16 1
    25   16   25 1
    26   16   26 1
    27   17   18 2
    28   17   19 2
    29   17   27 1
@<TRIPOS>MOLECULE
ZINC36978715
   40    41     0     0     0
SMALL
USER_CHARGES

@<TRIPOS>ATOM
      1 C1          0.0247    1.5020    0.0057 C.3       1 <0>        -0.1388
      2 C2          0.0167   -0.0050    0.0006 C.2       1 <0>         0.0819
      3 C3         -0.0903   -0.7087   -1.1988 C.2       1 <0>        -0.2304
      4 C4         -0.0967   -2.0663   -1.1941 C.2       1 <0>         0.1689
      5 N1         -0.0005   -2.7650   -0.0379 N.am      1 <0>        -0.6036
      6 H1         -0.0080   -3.7346   -0.0642 H         1 <0>         0.4119
      7 C5          0.1058   -2.1352    1.1475 C.2       1 <0>         0.5333
      8 O1          0.1922   -2.7813    2.1774 O.2       1 <0>        -0.5436
      9 C6          0.1218   -0.7171    1.1936 C.2       1 <0>        -0.2662
     10 C7          0.2425   -0.0114    2.4784 C.2       1 <0>         0.5765
     11 O2          0.1419    1.2003    2.5186 O.2       1 <0>        -0.5216
     12 N2          0.4645   -0.7071    3.6112 N.am      1 <0>        -0.6868
     13 C8          0.4698   -0.0187    4.9044 C.3       1 <0>         0.1091
     14 C9         -0.8910    0.6411    5.1365 C.3       1 <0>        -0.1094
     15 C10        -1.9841   -0.4294    5.1330 C.3       1 <0>        -0.1141
     16 C11        -1.7110   -1.4408    6.2480 C.3       1 <0>        -0.1126
     17 C12        -0.3502   -2.1007    6.0159 C.3       1 <0>        -0.1199
     18 C13         0.7429   -1.0302    6.0194 C.3       1 <0>        -0.1033
     19 C14         1.5465    1.0357    4.9078 C.2       1 <0>         0.5021
     20 O3          2.2447    1.1972    3.9215 O.co2     1 <0>        -0.6739
     21 O4          1.7194    1.7272    5.8970 O.co2     1 <0>        -0.7061
     22 C15        -0.2136   -2.8097   -2.4998 C.3       1 <0>        -0.1251
     23 H2          1.0542    1.8598    0.0176 H         1 <0>         0.0874
     24 H3         -0.4779    1.8710   -0.8884 H         1 <0>         0.0580
     25 H4         -0.4965    1.8652    0.8914 H         1 <0>         0.1182
     26 H5         -0.1686   -0.1726   -2.1330 H         1 <0>         0.1486
     27 H6          0.6207   -1.6635    3.5702 H         1 <0>         0.3996
     28 H7         -0.8870    1.1533    6.0987 H         1 <0>         0.0666
     29 H8         -1.0856    1.3617    4.3422 H         1 <0>         0.0714
     30 H9         -2.9535    0.0407    5.2984 H         1 <0>         0.0493
     31 H10        -1.9881   -0.9415    4.1709 H         1 <0>         0.0552
     32 H11        -1.7070   -0.9287    7.2102 H         1 <0>         0.0582
     33 H12        -2.4897   -2.2035    6.2456 H         1 <0>         0.0500
     34 H13        -0.1556   -2.8213    6.8103 H         1 <0>         0.0535
     35 H14        -0.3542   -2.6128    5.0537 H         1 <0>         0.0628
     36 H15         1.7123   -1.5003    5.8540 H         1 <0>         0.0554
     37 H16         0.7469   -0.5181    6.9816 H         1 <0>         0.0770
     38 H17         0.7820   -2.9940   -2.9033 H         1 <0>         0.0902
     39 H18        -0.7196   -3.7605   -2.3325 H         1 <0>         0.0767
     40 H19        -0.7877   -2.2122   -3.2079 H         1 <0>         0.0933
@<TRIPOS>BOND
     1    1    2 1
     2    1   23 1
     3    1   24 1
     4    1   25 1
     5    2    9 2
     6    2    3 1
     7    3    4 2
     8    3   26 1
     9    4    5 1
    10    4   22 1
    11    5    6 1
    12    5    7 am
    13    7    8 2
    14    7    9 1
    15    9   10 1
    16   10   11 2
    17   10   12 am
    18   12   13 1
    19   12   27 1
    20   13   18 1
    21   13   14 1
    22   13   19 1
    23   14   15 1
    24   14   28 1
    25   14   29 1
    26   15   16 1
    27   15   30 1
    28   15   31 1
    29   16   17 1
    30   16   32 1
    31   16   33 1
    32   17   18 1
    33   17   34 1
    34   17   35 1
    35   18   36 1
    36   18   37 1
    37   19   20 2
    38   19   21 1
    39   22   38 1
    40   22   39 1
    41   22   40 1
@<TRIPOS>MOLECULE
ZINC39351897
   30    32     0     0     0
SMALL
USER_CHARGES

@<TRIPOS>ATOM
      1 C1         -0.0167    1.3819    0.0096 C.ar      1 <0>        -0.2691
      2 C2          1.1919    2.0606    0.0017 C.ar      1 <0>         0.1779
      3 N1          2.3196    1.3695   -0.0127 N.ar      1 <0>        -0.5518
      4 C3          2.3023    0.0456   -0.0197 C.ar      1 <0>         0.5418
      5 N2          1.1655   -0.6333   -0.0129 N.ar      1 <0>        -0.5030
      6 C4          0.0021   -0.0041    0.0020 C.ar      1 <0>         0.1785
      7 N3          3.5060   -0.6481   -0.0349 N.am      1 <0>        -0.6391
      8 C5          3.5071   -1.9958   -0.0421 C.2       1 <0>         0.5284
      9 O1          2.4574   -2.6030   -0.0354 O.2       1 <0>        -0.4470
     10 C6          4.8127   -2.7482   -0.0587 C.3       1 <0>        -0.1360
     11 S1          4.4826   -4.5319   -0.0651 S.3       1 <0>         0.0181
     12 C7          6.0861   -5.2621   -0.0843 C.2       1 <0>         0.3799
     13 N4          7.1035   -4.4422   -0.0844 N.2       1 <0>        -0.6569
     14 C8          8.4628   -4.9792   -0.1578 C.3       1 <0>         0.1827
     15 H1          8.7992   -5.0639   -1.1911 H         1 <0>         0.1219
     16 C9          8.3824   -6.3463    0.5197 C.2       1 <0>         0.1714
     17 N5          9.3213   -6.3651    1.3894 N.2       1 <0>        -0.4999
     18 C10         9.8995   -5.1536    1.5148 C.2       1 <0>         0.2383
     19 N6          9.4379   -4.2621    0.6613 N.2       1 <0>        -0.4846
     20 C11         7.2624   -7.2556    0.2002 C.2       1 <0>         0.4416
     21 N7          6.1369   -6.6046   -0.0920 N.2       1 <0>        -0.7039
     22 N8          7.3689   -8.6240    0.2083 N.2       1 <0>        -0.7629
     23 H2         -0.9524    1.9211    0.0259 H         1 <0>         0.1476
     24 H3          1.2125    3.1404    0.0070 H         1 <0>         0.1713
     25 H4         -0.9218   -0.5633    0.0082 H         1 <0>         0.1713
     26 H5          4.3456   -0.1624   -0.0403 H         1 <0>         0.4258
     27 H6          5.3755   -2.4796   -0.9526 H         1 <0>         0.1219
     28 H7          5.3925   -2.4892    0.8272 H         1 <0>         0.1206
     29 H8         10.6718   -4.9351    2.2374 H         1 <0>         0.1967
     30 H9          6.5987   -9.1717   -0.0102 H         1 <0>         0.3184
@<TRIPOS>BOND
     1    1    6 ar
     2    1    2 ar
     3    1   23 1
     4    2    3 ar
     5    2   24 1
     6    3    4 ar
     7    4    5 ar
     8    4    7 1
     9    5    6 ar
    10    6   25 1
    11    7    8 am
    12    7   26 1
    13    8    9 2
    14    8   10 1
    15   10   11 1
    16   10   27 1
    17   10   28 1
    18   11   12 1
    19   12   21 1
    20   12   13 2
    21   13   14 1
    22   14   15 1
    23   14   19 1
    24   14   16 1
    25   16   17 2
    26   16   20 1
    27   17   18 1
    28   18   19 2
    29   18   29 1
    30   20   21 2
    31   20   22 1
    32   22   30 1
@<TRIPOS>MOLECULE
ZINC33893526
   35    37     0     0     0
SMALL
USER_CHARGES

@<TRIPOS>ATOM
      1 C1         -0.7875   -1.7548   -2.2192 C.3       1 <0>        -0.1145
      2 C2         -0.0025   -1.4362   -0.9729 C.ar      1 <0>        -0.0852
      3 C3          0.8976   -0.3867   -0.9722 C.ar      1 <0>        -0.1205
      4 C4          1.6175   -0.0945    0.1708 C.ar      1 <0>        -0.1133
      5 C5          1.4374   -0.8515    1.3137 C.ar      1 <0>        -0.1050
      6 C6          0.5370   -1.9001    1.3132 C.ar      1 <0>        -0.0832
      7 C7         -0.1864   -2.1897    0.1711 C.ar      1 <0>        -0.1176
      8 C8          0.3410   -2.7255    2.5588 C.3       1 <0>         0.0890
      9 H1          0.8689   -2.2780    3.4009 H         1 <0>         0.1201
     10 C9         -1.1398   -2.8750    2.8740 C.3       1 <0>        -0.2226
     11 H2         -1.7592   -2.8618    1.9772 H         1 <0>         0.1115
     12 C10        -1.0738   -4.2862    3.5723 C.3       1 <0>         0.0103
     13 H3         -0.3450   -4.1376    4.3691 H         1 <0>         0.0548
     14 C11        -2.3193   -4.3072    4.3131 C.2       1 <0>         0.5088
     15 O1         -3.0442   -5.3882    4.6385 O.3       1 <0>        -0.6215
     16 N1         -2.6000   -3.0391    4.6066 N.2       1 <0>        -0.6844
     17 C12        -1.7657   -2.1302    4.0120 C.2       1 <0>         0.5261
     18 O2         -1.5673   -0.9766    4.3346 O.2       1 <0>        -0.5205
     19 O3         -0.3596   -5.0357    2.6773 O.3       1 <0>        -0.1893
     20 N2          0.8016   -4.1321    2.3361 N.3       1 <0>        -0.2985
     21 C13         1.2257   -4.3331    0.9440 C.3       1 <0>        -0.0007
     22 C14         1.9736   -5.6364    0.8299 C.2       1 <0>         0.5179
     23 O4          2.1373   -6.3296    1.8115 O.2       1 <0>        -0.5077
     24 N3          2.4606   -6.0316   -0.3630 N.am      1 <0>        -0.8624
     25 H4         -1.7194   -1.1893   -2.2161 H         1 <0>         0.0711
     26 H5         -0.2011   -1.4838   -3.0972 H         1 <0>         0.0660
     27 H6         -1.0099   -2.8215   -2.2459 H         1 <0>         0.0657
     28 H7          1.0383    0.2046   -1.8650 H         1 <0>         0.1210
     29 H8          2.3211    0.7248    0.1711 H         1 <0>         0.1238
     30 H9          2.0005   -0.6236    2.2066 H         1 <0>         0.1267
     31 H10        -0.8927   -3.0066    0.1719 H         1 <0>         0.1219
     32 H11         0.3487   -4.3596    0.2973 H         1 <0>         0.0910
     33 H12         1.8763   -3.5130    0.6404 H         1 <0>         0.1225
     34 H13         2.3297   -5.4772   -1.1481 H         1 <0>         0.3976
     35 H14         2.9421   -6.8705   -0.4365 H         1 <0>         0.4006
@<TRIPOS>BOND
     1    1    2 1
     2    1   25 1
     3    1   26 1
     4    1   27 1
     5    2    7 ar
     6    2    3 ar
     7    3    4 ar
     8    3   28 1
     9    4    5 ar
    10    4   29 1
    11    5    6 ar
    12    5   30 1
    13    6    7 ar
    14    6    8 1
    15    7   31 1
    16    8    9 1
    17    8   20 1
    18    8   10 1
    19   10   11 1
    20   10   17 1
    21   10   12 1
    22   12   13 1
    23   12   14 1
    24   12   19 1
    25   14   15 1
    26   14   16 2
    27   16   17 1
    28   17   18 2
    29   19   20 1
    30   20   21 1
    31   21   22 1
    32   21   32 1
    33   21   33 1
    34   22   23 2
    35   22   24 am
    36   24   34 1
    37   24   35 1
@<TRIPOS>MOLECULE
ZINC49052254
   34    35     0     0     0
SMALL
USER_CHARGES

@<TRIPOS>ATOM
      1 C1         -0.0187    1.5258    0.0104 C.3       1 <0>        -0.1143
      2 C2          0.0021   -0.0041    0.0020 C.3       1 <0>        -0.6494
      3 H1          0.5293   -0.3651    0.8851 H         1 <0>         0.1245
      4 C3          0.7074   -0.4901   -1.2379 C.2       1 <0>         0.5196
      5 O1          1.9225   -0.5900   -1.2484 O.co2     1 <0>        -0.6671
      6 O2          0.0630   -0.7833   -2.2305 O.co2     1 <0>        -0.6735
      7 S1         -1.6997   -0.6320    0.0149 S.o2      1 <0>         2.6267
      8 O3         -2.4193   -0.1184   -1.0977 O.2       1 <0>        -0.9404
      9 O4         -1.7058   -2.0237    0.3017 O.2       1 <0>        -0.9657
     10 N1         -2.4042    0.0749    1.3365 N.pl3     1 <0>        -1.0112
     11 C4         -2.3513   -0.5792    2.6510 C.3       1 <0>         0.1196
     12 C5         -3.7790   -0.7109    3.1930 C.3       1 <0>        -0.1257
     13 C6         -4.4520    0.6577    3.1836 C.3       1 <0>         0.1246
     14 C7         -4.5150    1.2207    1.7676 C.3       1 <0>        -0.1262
     15 C8         -3.0876    1.3699    1.2160 C.3       1 <0>         0.1200
     16 C9         -5.8389    0.5674    3.7773 C.2       1 <0>         0.5352
     17 O5         -6.7712   -0.0906    3.3677 O.2       1 <0>        -0.4580
     18 N2         -5.8208    1.3729    4.8595 N.am      1 <0>        -0.6817
     19 C10        -4.6243    1.9503    5.0242 C.2       1 <0>         0.7056
     20 O6         -4.3631    2.7177    5.9298 O.2       1 <0>        -0.5461
     21 N3         -3.7425    1.5852    4.0741 N.am      1 <0>        -0.7127
     22 H2          1.0039    1.9031    0.0027 H         1 <0>         0.0731
     23 H3         -0.5459    1.8868   -0.8726 H         1 <0>         0.0677
     24 H4         -0.5289    1.8773    0.9072 H         1 <0>         0.0558
     25 H5         -1.9063   -1.5690    2.5491 H         1 <0>         0.1063
     26 H6         -1.7546    0.0236    3.3355 H         1 <0>         0.0698
     27 H7         -4.3447   -1.3985    2.5643 H         1 <0>         0.0989
     28 H8         -3.7469   -1.0933    4.2132 H         1 <0>         0.0862
     29 H9         -5.0843    0.5427    1.1317 H         1 <0>         0.0993
     30 H10        -5.0003    2.1965    1.7855 H         1 <0>         0.0861
     31 H11        -2.5476    2.1230    1.7900 H         1 <0>         0.0703
     32 H12        -3.1282    1.6657    0.1677 H         1 <0>         0.1091
     33 H13        -6.5806    1.5163    5.4452 H         1 <0>         0.4315
     34 H14        -2.8209    1.8770    3.9938 H         1 <0>         0.4420
@<TRIPOS>BOND
     1    1    2 1
     2    1   22 1
     3    1   23 1
     4    1   24 1
     5    2    3 1
     6    2    4 1
     7    2    7 1
     8    4    5 2
     9    4    6 1
    10    7    8 2
    11    7    9 2
    12    7   10 1
    13   10   15 1
    14   10   11 1
    15   11   12 1
    16   11   25 1
    17   11   26 1
    18   12   13 1
    19   12   27 1
    20   12   28 1
    21   13   21 1
    22   13   14 1
    23   13   16 1
    24   14   15 1
    25   14   29 1
    26   14   30 1
    27   15   31 1
    28   15   32 1
    29   16   17 2
    30   16   18 am
    31   18   19 am
    32   18   33 1
    33   19   20 2
    34   19   21 am
    35   21   34 1
@<TRIPOS>MOLECULE
ZINC03871108
   29    30     0     0     0
SMALL
USER_CHARGES
4-amino-1-[5-(chloromethyl)-3,4-dihydroxy-tetrahydrofuran-2-yl]-pyrimidin-2-one
@<TRIPOS>ATOM
      1 C1         -0.5529   -2.0380   -1.0228 C.2       1 <0>        -0.3214
      2 C2         -0.5819   -0.6842   -1.0242 C.2       1 <0>         0.2078
      3 N1          0.0021   -0.0041    0.0020 N.am      1 <0>        -0.5276
      4 C3          0.5921   -0.6710    1.0109 C.2       1 <0>         0.6454
      5 O1          1.1062   -0.0460    1.9236 O.2       1 <0>        -0.5043
      6 N2          0.6242   -2.0024    1.0291 N.2       1 <0>        -0.5705
      7 C4          0.0733   -2.7066    0.0491 C.2       1 <0>         0.4653
      8 N3          0.1122   -4.0814    0.0788 N.pl3     1 <0>        -0.7550
      9 C5         -0.0178    1.4608    0.0101 C.3       1 <0>         0.3056
     10 H1          0.9990    1.8534    0.0025 H         1 <0>         0.1213
     11 C6         -0.7861    1.9814    1.2450 C.3       1 <0>         0.0848
     12 H2         -1.4901    1.2296    1.6018 H         1 <0>         0.0873
     13 C7         -1.5402    3.2242    0.7216 C.3       1 <0>         0.0433
     14 H3         -1.2184    4.1188    1.2546 H         1 <0>         0.0979
     15 C8         -1.1384    3.3074   -0.7677 C.3       1 <0>         0.0452
     16 H4         -0.2941    3.9848   -0.8957 H         1 <0>         0.1039
     17 O2         -0.7579    1.9598   -1.1253 O.3       1 <0>        -0.3545
     18 C9         -2.3252    3.7714   -1.6145 C.3       1 <0>        -0.0381
     19 Cl1        -1.7923    4.0012   -3.3215 Cl        1 <0>        -0.1577
     20 O3         -2.9520    3.0440    0.8500 O.3       1 <0>        -0.5484
     21 O4          0.1246    2.3458    2.2842 O.3       1 <0>        -0.5226
     22 H5         -1.0057   -2.5970   -1.8283 H         1 <0>         0.1581
     23 H6         -1.0591   -0.1493   -1.8321 H         1 <0>         0.1811
     24 H7          1.0641   -4.3878    0.0885 H         1 <0>         0.3745
     25 H8         -0.2916   -4.5936   -0.6392 H         1 <0>         0.3806
     26 H9         -3.1136    3.0195   -1.5781 H         1 <0>         0.1135
     27 H10        -2.7047    4.7149   -1.2222 H         1 <0>         0.1125
     28 H11        -3.4745    3.7948    0.5361 H         1 <0>         0.3846
     29 H12        -0.3044    2.6797    3.0839 H         1 <0>         0.3873
@<TRIPOS>BOND
     1    1    7 1
     2    1    2 2
     3    1   22 1
     4    2    3 1
     5    2   23 1
     6    3    4 am
     7    3    9 1
     8    4    5 2
     9    4    6 1
    10    6    7 2
    11    7    8 1
    12    8   24 1
    13    8   25 1
    14    9   10 1
    15    9   17 1
    16    9   11 1
    17   11   12 1
    18   11   13 1
    19   11   21 1
    20   13   14 1
    21   13   15 1
    22   13   20 1
    23   15   16 1
    24   15   17 1
    25   15   18 1
    26   18   19 1
    27   18   26 1
    28   18   27 1
    29   20   28 1
    30   21   29 1
@<TRIPOS>MOLECULE
ZINC17214048
   41    42     0     0     0
SMALL
USER_CHARGES
(2R,3S,4S,5S)-2-(hydroxymethyl)-5-[2-(hydroxymethyl)-4,6-dimethoxy-phenyl]tetrahydrofuran-3,4-diol
@<TRIPOS>ATOM
      1 C1          3.3327    3.1733   -5.8153 C.3       1 <0>         0.0267
      2 O1          2.4040    2.0879   -5.7778 O.3       1 <0>        -0.3125
      3 C2          1.6244    1.9810   -4.6699 C.ar      1 <0>         0.1719
      4 C3          0.7010    0.9498   -4.5672 C.ar      1 <0>        -0.1719
      5 C4         -0.0876    0.8371   -3.4385 C.ar      1 <0>        -0.0056
      6 C5          0.0327    1.7568   -2.4140 C.ar      1 <0>        -0.1537
      7 C6          0.9543    2.7894   -2.5119 C.ar      1 <0>         0.2206
      8 C7          1.7509    2.9014   -3.6412 C.ar      1 <0>        -0.3101
      9 O2          1.0757    3.6905   -1.5019 O.3       1 <0>        -0.2700
     10 C8          2.0447    4.7272   -1.6704 C.3       1 <0>         0.0256
     11 C9         -0.8335    1.6344   -1.1869 C.3       1 <0>         0.1403
     12 H1         -1.6949    0.9969   -1.3858 H         1 <0>         0.0901
     13 C10        -0.0127    1.0858    0.0080 C.3       1 <0>         0.0897
     14 H2          0.0021   -0.0041    0.0020 H         1 <0>         0.0841
     15 C11        -0.8095    1.6208    1.2227 C.3       1 <0>         0.0451
     16 H3         -0.1304    1.9642    2.0031 H         1 <0>         0.0797
     17 C12        -1.6182    2.8025    0.6532 C.3       1 <0>         0.0514
     18 H4         -2.6852    2.5982    0.7417 H         1 <0>         0.0812
     19 O3         -1.2597    2.9373   -0.7323 O.3       1 <0>        -0.3281
     20 C13        -1.2668    4.0857    1.4087 C.3       1 <0>         0.0812
     21 O4         -2.1038    5.1507    0.9537 O.3       1 <0>        -0.5631
     22 O5         -1.6863    0.6125    1.7291 O.3       1 <0>        -0.5537
     23 O6          1.3161    1.6115   -0.0019 O.3       1 <0>        -0.5257
     24 C14        -1.0851   -0.2871   -3.3269 C.3       1 <0>         0.1153
     25 O7         -1.0220   -1.0982   -4.5017 O.3       1 <0>        -0.5646
     26 H5          3.8903    3.1423   -6.7514 H         1 <0>         0.1021
     27 H6          2.7917    4.1170   -5.7458 H         1 <0>         0.0551
     28 H7          4.0246    3.0886   -4.9773 H         1 <0>         0.0549
     29 H8          0.6023    0.2322   -5.3683 H         1 <0>         0.1432
     30 H9          2.4686    3.7047   -3.7194 H         1 <0>         0.1338
     31 H10         2.0391    5.3757   -0.7943 H         1 <0>         0.0960
     32 H11         3.0337    4.2844   -1.7883 H         1 <0>         0.0507
     33 H12         1.8005    5.3122   -2.5571 H         1 <0>         0.0496
     34 H13        -1.4218    3.9325    2.4767 H         1 <0>         0.0527
     35 H14        -0.2228    4.3405    1.2260 H         1 <0>         0.0598
     36 H15        -1.9360    5.9969    1.3906 H         1 <0>         0.3800
     37 H16        -2.2105    0.8938    2.4915 H         1 <0>         0.3862
     38 H17         1.8549    1.3327    0.7511 H         1 <0>         0.3750
     39 H18        -0.8513   -0.8948   -2.4528 H         1 <0>         0.0646
     40 H19        -2.0884    0.1263   -3.2242 H         1 <0>         0.0670
     41 H20        -1.6386   -1.8431   -4.4990 H         1 <0>         0.3855
@<TRIPOS>BOND
     1    1    2 1
     2    1   26 1
     3    1   27 1
     4    1   28 1
     5    2    3 1
     6    3    8 ar
     7    3    4 ar
     8    4    5 ar
     9    4   29 1
    10    5    6 ar
    11    5   24 1
    12    6    7 ar
    13    6   11 1
    14    7    8 ar
    15    7    9 1
    16    8   30 1
    17    9   10 1
    18   10   31 1
    19   10   32 1
    20   10   33 1
    21   11   12 1
    22   11   19 1
    23   11   13 1
    24   13   14 1
    25   13   15 1
    26   13   23 1
    27   15   16 1
    28   15   17 1
    29   15   22 1
    30   17   18 1
    31   17   19 1
    32   17   20 1
    33   20   21 1
    34   20   34 1
    35   20   35 1
    36   21   36 1
    37   22   37 1
    38   23   38 1
    39   24   25 1
    40   24   39 1
    41   24   40 1
    42   25   41 1
@<TRIPOS>MOLECULE
ZINC37745276
   31    32     0     0     0
SMALL
USER_CHARGES

@<TRIPOS>ATOM
      1 C1         -0.0168    1.3913    0.0097 C.ar      1 <0>        -0.0338
      2 C2          1.1681    2.0963    0.0022 C.ar      1 <0>        -0.1669
      3 C3          2.3813    1.4194   -0.0135 C.ar      1 <0>         0.2956
      4 C4          2.4046    0.0271   -0.0217 C.ar      1 <0>        -0.0655
      5 C5          1.2222   -0.6832   -0.0142 C.ar      1 <0>        -0.0482
      6 C6          0.0021   -0.0041    0.0020 C.ar      1 <0>        -0.1635
      7 C7         -1.2274   -0.7382    0.0103 C.1       1 <0>         0.0879
      8 C8         -2.2354   -1.3400    0.0171 C.1       1 <0>        -0.3927
      9 C9         -3.4992   -2.0946    0.0256 C.3       1 <0>         0.1627
     10 N1         -3.2097   -3.5348    0.0150 N.4       1 <0>        -0.6375
     11 F1          3.5859   -0.6283   -0.0374 F         1 <0>        -0.1339
     12 N2          3.5799    2.1369   -0.0216 N.2       1 <0>        -1.0736
     13 S1          5.0268    1.3316   -0.0403 S.o2      1 <0>         2.6591
     14 O1          5.1261    0.6461    1.2005 O.2       1 <0>        -1.0179
     15 O2          5.1014    0.6595   -1.2900 O.2       1 <0>        -1.0236
     16 C10         6.3005    2.5490   -0.0464 C.2       1 <0>        -0.7702
     17 C11         6.8614    3.1089   -1.1432 C.2       1 <0>         0.1715
     18 N3          7.7933    3.9904   -0.7241 N.pl3     1 <0>        -0.4722
     19 H1          8.3553    4.5401   -1.2924 H         1 <0>         0.4397
     20 N4          7.8055    3.9716    0.6766 N.2       1 <0>        -0.3014
     21 C12         6.9063    3.1119    1.0817 C.2       1 <0>         0.1334
     22 H2         -0.9592    1.9188    0.0260 H         1 <0>         0.1203
     23 H3          1.1532    3.1762    0.0081 H         1 <0>         0.1351
     24 H4          1.2400   -1.7630   -0.0209 H         1 <0>         0.1200
     25 H5         -4.0657   -1.8445    0.9226 H         1 <0>         0.1397
     26 H6         -4.0834   -1.8350   -0.8573 H         1 <0>         0.1396
     27 H7         -4.0760   -4.0520    0.0208 H         1 <0>         0.4364
     28 H8         -2.6853   -3.7663   -0.8154 H         1 <0>         0.4368
     29 H9          6.6086    2.8896   -2.1700 H         1 <0>         0.1912
     30 H10         6.6741    2.8754    2.1096 H         1 <0>         0.1949
     31 H11        -2.6690   -3.7752    0.8322 H         1 <0>         0.4369
@<TRIPOS>BOND
     1    1    6 ar
     2    1    2 ar
     3    1   22 1
     4    2    3 ar
     5    2   23 1
     6    3    4 ar
     7    3   12 1
     8    4    5 ar
     9    4   11 1
    10    5    6 ar
    11    5   24 1
    12    6    7 1
    13    7    8 3
    14    8    9 1
    15    9   10 1
    16    9   25 1
    17    9   26 1
    18   10   27 1
    19   10   28 1
    20   10   31 1
    21   12   13 1
    22   13   14 2
    23   13   15 2
    24   13   16 1
    25   16   21 1
    26   16   17 2
    27   17   18 1
    28   17   29 1
    29   18   19 1
    30   18   20 1
    31   20   21 2
    32   21   30 1
@<TRIPOS>MOLECULE
ZINC41158491
   35    37     0     0     0
SMALL
USER_CHARGES

@<TRIPOS>ATOM
      1 C1         -0.0178    1.4608    0.0101 C.3       1 <0>         0.0985
      2 N1          0.0021   -0.0041    0.0020 N.pl3     1 <0>        -0.3743
      3 C2          0.0078   -0.7920   -1.0936 C.2       1 <0>         0.0777
      4 C3          0.0272   -2.0789   -0.6760 C.2       1 <0>        -0.2628
      5 C4          0.0335   -2.0775    0.7227 C.2       1 <0>         0.0644
      6 N2          0.0246   -0.8342    1.1302 N.2       1 <0>        -0.2957
      7 C5          0.0390   -3.2983   -1.5614 C.3       1 <0>         0.2032
      8 N3          1.4239   -3.6749   -1.8554 N.am      1 <0>        -0.7285
      9 C6          1.6805   -4.7438   -2.6352 C.2       1 <0>         0.5886
     10 O1          0.7620   -5.3960   -3.0950 O.2       1 <0>        -0.5418
     11 C7          3.0692   -5.1215   -2.9300 C.2       1 <0>        -0.2128
     12 C8          4.1964   -4.4968   -2.4857 C.2       1 <0>         0.0911
     13 N4          5.2932   -5.1333   -2.9658 N.pl3     1 <0>        -0.5806
     14 H1          6.2093   -4.8709   -2.7842 H         1 <0>         0.4188
     15 C9          4.9223   -6.2070   -3.7485 C.ar      1 <0>         0.1348
     16 C10         3.5187   -6.2554   -3.7598 C.ar      1 <0>        -0.1141
     17 C11         2.8577   -7.2513   -4.4744 C.ar      1 <0>        -0.0169
     18 C12         3.5776   -8.1866   -5.1642 C.ar      1 <0>        -0.2020
     19 C13         4.9702   -8.1499   -5.1566 C.ar      1 <0>         0.2384
     20 C14         5.6426   -7.1618   -4.4573 C.ar      1 <0>        -0.2229
     21 N5          5.6938   -9.1129   -5.8661 N.pl3     1 <0>        -0.8770
     22 H2          1.0048    1.8381    0.0023 H         1 <0>         0.0769
     23 H3         -0.5450    1.8219   -0.8730 H         1 <0>         0.0894
     24 H4         -0.5280    1.8123    0.9069 H         1 <0>         0.0911
     25 H5         -0.0017   -0.4556   -2.1198 H         1 <0>         0.1766
     26 H6          0.0482   -2.9516    1.3568 H         1 <0>         0.1854
     27 H7         -0.4613   -4.1220   -1.0521 H         1 <0>         0.0765
     28 H8         -0.4826   -3.0763   -2.4924 H         1 <0>         0.0730
     29 H9          2.1562   -3.1550   -1.4888 H         1 <0>         0.3963
     30 H10         4.2133   -3.6256   -1.8476 H         1 <0>         0.1738
     31 H11         1.7783   -7.2850   -4.4832 H         1 <0>         0.1345
     32 H12         3.0638   -8.9585   -5.7180 H         1 <0>         0.1243
     33 H13         6.7224   -7.1392   -4.4539 H         1 <0>         0.1188
     34 H14         5.2261   -9.8034   -6.3614 H         1 <0>         0.4001
     35 H15         6.6635   -9.0905   -5.8631 H         1 <0>         0.3974
@<TRIPOS>BOND
     1    1    2 1
     2    1   22 1
     3    1   23 1
     4    1   24 1
     5    2    6 1
     6    2    3 1
     7    3    4 2
     8    3   25 1
     9    4    5 1
    10    4    7 1
    11    5    6 2
    12    5   26 1
    13    7    8 1
    14    7   27 1
    15    7   28 1
    16    8    9 am
    17    8   29 1
    18    9   10 2
    19    9   11 1
    20   11   16 1
    21   11   12 2
    22   12   13 1
    23   12   30 1
    24   13   14 1
    25   13   15 1
    26   15   20 ar
    27   15   16 ar
    28   16   17 ar
    29   17   18 ar
    30   17   31 1
    31   18   19 ar
    32   18   32 1
    33   19   20 ar
    34   19   21 1
    35   20   33 1
    36   21   34 1
    37   21   35 1
@<TRIPOS>MOLECULE
ZINC02568984
   30    31     0     0     0
SMALL
USER_CHARGES

@<TRIPOS>ATOM
      1 C1         -0.0187    1.5258    0.0104 C.3       1 <0>        -0.1763
      2 C2          0.0021   -0.0041    0.0020 C.3       1 <0>         0.1422
      3 H1         -1.0194   -0.3843    0.0097 H         1 <0>         0.1165
      4 C3          0.7278   -0.5025   -1.2529 C.3       1 <0>        -0.1566
      5 C4          2.1459    0.0779   -1.2977 C.3       1 <0>         0.1286
      6 H2          2.0965    1.1472   -1.5035 H         1 <0>         0.1352
      7 N1          2.7897   -0.1431    0.0013 N.pl3     1 <0>        -0.4042
      8 C5          2.1083   -0.4103    1.1408 C.2       1 <0>         0.4454
      9 C6          3.0343   -0.5608    2.1558 C.2       1 <0>        -0.3518
     10 C7          4.3130   -0.3696    1.5736 C.2       1 <0>         0.1146
     11 N2          4.1506   -0.1236    0.3018 N.2       1 <0>        -0.2845
     12 C8          2.7492   -0.8607    3.5640 C.2       1 <0>         0.6096
     13 O1          1.5990   -1.0020    3.9352 O.2       1 <0>        -0.5514
     14 N3          3.7614   -0.9794    4.4460 N.am      1 <0>        -0.5773
     15 N4          3.4960   -1.2584    5.7566 N.3       1 <0>        -0.6011
     16 N5          0.7238   -0.4969    1.1916 N.pl3     1 <0>        -0.7043
     17 C9          2.9506   -0.6190   -2.3967 C.3       1 <0>         0.4562
     18 F1          2.3258   -0.4163   -3.6319 F         1 <0>        -0.1726
     19 F2          4.2442   -0.0877   -2.4356 F         1 <0>        -0.1595
     20 F3          3.0175   -1.9902   -2.1274 F         1 <0>        -0.1733
     21 H3          1.0039    1.9031    0.0027 H         1 <0>         0.0572
     22 H4         -0.5459    1.8868   -0.8726 H         1 <0>         0.0785
     23 H5         -0.5289    1.8773    0.9072 H         1 <0>         0.0741
     24 H6          0.7823   -1.5910   -1.2317 H         1 <0>         0.0988
     25 H7          0.1784   -0.1855   -2.1393 H         1 <0>         0.1229
     26 H8          5.2586   -0.4186    2.0930 H         1 <0>         0.1931
     27 H9          4.6782   -0.8667    4.1501 H         1 <0>         0.3995
     28 H10         2.9549   -2.1056    5.8436 H         1 <0>         0.3458
     29 H11         4.3483   -1.3171    6.2936 H         1 <0>         0.3574
     30 H12         0.2569   -0.8606    1.9601 H         1 <0>         0.4368
@<TRIPOS>BOND
     1    1    2 1
     2    1   21 1
     3    1   22 1
     4    1   23 1
     5    2    3 1
     6    2   16 1
     7    2    4 1
     8    4    5 1
     9    4   24 1
    10    4   25 1
    11    5    6 1
    12    5    7 1
    13    5   17 1
    14    7   11 1
    15    7    8 1
    16    8    9 2
    17    8   16 1
    18    9   10 1
    19    9   12 1
    20   10   11 2
    21   10   26 1
    22   12   13 2
    23   12   14 am
    24   14   15 1
    25   14   27 1
    26   15   28 1
    27   15   29 1
    28   16   30 1
    29   17   18 1
    30   17   19 1
    31   17   20 1
@<TRIPOS>MOLECULE
ZINC04513757
   30    32     0     0     0
SMALL
USER_CHARGES
5-(6-aminopurin-9-yl)-3,4-dihydroxy-tetrahydrofuran-2-carboxylic acid
@<TRIPOS>ATOM
      1 C1         -3.5268    1.6132    0.0280 C.ar      1 <0>         0.3359
      2 N1         -2.3695    0.9769    0.0186 N.ar      1 <0>        -0.5512
      3 C2         -1.2188    1.6414    0.0168 C.ar      1 <0>         0.4477
      4 C3         -1.2568    3.0463    0.0305 C.ar      1 <0>        -0.0972
      5 C4         -2.5128    3.6758    0.0349 C.ar      1 <0>         0.3004
      6 N2         -3.6108    2.9267    0.0360 N.ar      1 <0>        -0.5229
      7 N3         -2.2600    5.0242    0.0411 N.pl3     1 <0>        -0.4624
      8 C5         -0.9066    5.1863    0.0351 C.2       1 <0>         0.2953
      9 N4         -0.3198    4.0247    0.0257 N.2       1 <0>        -0.4783
     10 C6         -3.2611    6.0938    0.0513 C.3       1 <0>         0.3099
     11 H1         -4.1409    5.7890    0.6180 H         1 <0>         0.1181
     12 C7         -3.6503    6.4910   -1.3955 C.3       1 <0>         0.0741
     13 H2         -2.7825    6.4591   -2.0543 H         1 <0>         0.0880
     14 C8         -4.1496    7.9445   -1.2095 C.3       1 <0>         0.0701
     15 H3         -5.2372    7.9685   -1.1411 H         1 <0>         0.0803
     16 C9         -3.5155    8.3944    0.1210 C.3       1 <0>         0.0029
     17 H4         -4.2953    8.6185    0.8488 H         1 <0>         0.0871
     18 O1         -2.7017    7.3086    0.5952 O.3       1 <0>        -0.3377
     19 C10        -2.6605    9.6146   -0.1057 C.2       1 <0>         0.4804
     20 O2         -1.4642    9.5517    0.0521 O.co2     1 <0>        -0.6042
     21 O3         -3.6965    8.7704   -2.2841 O.3       1 <0>        -0.5594
     22 O4         -4.6957    5.6521   -1.8909 O.3       1 <0>        -0.5426
     23 N5         -0.0111    0.9658    0.0074 N.pl3     1 <0>        -0.7529
     24 H5         -4.4384    1.0341    0.0295 H         1 <0>         0.2061
     25 H6         -0.3964    6.1383    0.0374 H         1 <0>         0.2323
     26 H7         -3.9316    9.7036   -2.1890 H         1 <0>         0.4026
     27 H8         -4.9739    5.8617   -2.7930 H         1 <0>         0.3866
     28 H9          0.0554    0.3907    0.8227 H         1 <0>         0.3628
     29 H10         0.8223    1.4622    0.0021 H         1 <0>         0.3813
     30 O5         -3.2279   10.7711   -0.4828 O.co2     1 <0>        -0.7532
@<TRIPOS>BOND
     1    1    6 ar
     2    1    2 ar
     3    1   24 1
     4    2    3 ar
     5    3    4 ar
     6    3   23 1
     7    4    9 1
     8    4    5 ar
     9    5    6 ar
    10    5    7 1
    11    7    8 1
    12    7   10 1
    13    8    9 2
    14    8   25 1
    15   10   11 1
    16   10   18 1
    17   10   12 1
    18   12   13 1
    19   12   14 1
    20   12   22 1
    21   14   15 1
    22   14   16 1
    23   14   21 1
    24   16   17 1
    25   16   18 1
    26   16   19 1
    27   19   20 2
    28   19   30 1
    29   21   26 1
    30   22   27 1
    31   23   28 1
    32   23   29 1
@<TRIPOS>MOLECULE
ZINC16385652
   38    39     0     0     0
SMALL
USER_CHARGES
(2S,3S,4R,5S,6R)-6-(hydroxymethyl)-3-[(2-hydroxy-5-nitro-phenyl)methyleneamino]tetrahydropyran-2,4,5-triol
@<TRIPOS>ATOM
      1 C1          6.9254    1.4282    1.2826 C.ar      1 <0>        -0.0073
      2 C2          7.0001    0.0617    1.0935 C.ar      1 <0>        -0.2423
      3 C3          5.8462   -0.7059    1.1075 C.ar      1 <0>         0.3294
      4 C4          4.6041   -0.0894    1.3143 C.ar      1 <0>        -0.2715
      5 C5          4.5422    1.2937    1.4989 C.ar      1 <0>         0.0079
      6 C6          5.7007    2.0410    1.4876 C.ar      1 <0>        -0.1785
      7 N1          5.6345    3.5058    1.6894 N.pl3     1 <0>         0.0664
      8 O1          6.6558    4.1693    1.6749 O.2       1 <0>        -0.2224
      9 O2          4.5587    4.0477    1.8699 O.3       1 <0>        -0.2149
     10 C7          3.3702   -0.8953    1.3307 C.2       1 <0>         0.2573
     11 N2          2.2568   -0.3826    0.9153 N.2       1 <0>        -0.5296
     12 C8          2.2557    0.9188    0.2425 C.3       1 <0>         0.0347
     13 H1          3.2824    1.2552    0.0983 H         1 <0>         0.0996
     14 C9          1.5630    0.7913   -1.1177 C.3       1 <0>         0.1392
     15 H2          1.6056    1.7465   -1.6411 H         1 <0>         0.0700
     16 C10         0.1005    0.3922   -0.8982 C.3       1 <0>         0.0534
     17 H3          0.0578   -0.5867   -0.4207 H         1 <0>         0.0881
     18 C11        -0.5740    1.4304    0.0023 C.3       1 <0>         0.0672
     19 H4         -0.5669    2.4011   -0.4936 H         1 <0>         0.0774
     20 O3          0.1377    1.5214    1.2381 O.3       1 <0>        -0.3670
     21 C12         1.4979    1.9368    1.0989 C.3       1 <0>         0.2686
     22 H5          1.9612    2.0001    2.0834 H         1 <0>         0.1067
     23 O4          1.5427    3.2180    0.4676 O.3       1 <0>        -0.5685
     24 C13        -2.0188    1.0073    0.2754 C.3       1 <0>         0.0827
     25 O5         -2.6828    2.0318    1.0181 O.3       1 <0>        -0.5618
     26 O6         -0.5742    0.3394   -2.1567 O.3       1 <0>        -0.5638
     27 O7          2.2201   -0.2104   -1.8967 O.3       1 <0>        -0.5474
     28 H6          7.8275    2.0219    1.2708 H         1 <0>         0.1281
     29 H7          7.9591   -0.4090    0.9349 H         1 <0>         0.1255
     30 H8          3.5887    1.7764    1.6543 H         1 <0>         0.1310
     31 H9          3.3951   -1.9137    1.6894 H         1 <0>         0.1632
     32 H10         1.0815    3.9135    0.9560 H         1 <0>         0.3885
     33 H11        -2.5366    0.8508   -0.6709 H         1 <0>         0.0574
     34 H12        -2.0236    0.0810    0.8498 H         1 <0>         0.0585
     35 H13        -3.6052    1.8307    1.2274 H         1 <0>         0.3784
     36 H14        -1.5074    0.0941   -2.0928 H         1 <0>         0.3758
     37 H15         1.8286   -0.3491   -2.7700 H         1 <0>         0.3783
     38 O8          5.9183   -2.0484    0.9223 O.3       1 <0>        -0.6586
@<TRIPOS>BOND
     1    1    6 ar
     2    1    2 ar
     3    1   28 1
     4    2    3 ar
     5    2   29 1
     6    3    4 ar
     7    3   38 1
     8    4    5 ar
     9    4   10 1
    10    5    6 ar
    11    5   30 1
    12    6    7 1
    13    7    8 2
    14    7    9 1
    15   10   11 2
    16   10   31 1
    17   11   12 1
    18   12   13 1
    19   12   21 1
    20   12   14 1
    21   14   15 1
    22   14   16 1
    23   14   27 1
    24   16   17 1
    25   16   18 1
    26   16   26 1
    27   18   19 1
    28   18   20 1
    29   18   24 1
    30   20   21 1
    31   21   22 1
    32   21   23 1
    33   23   32 1
    34   24   25 1
    35   24   33 1
    36   24   34 1
    37   25   35 1
    38   26   36 1
    39   27   37 1
@<TRIPOS>MOLECULE
ZINC37431897
   30    31     0     0     0
SMALL
USER_CHARGES

@<TRIPOS>ATOM
      1 C1          0.0158    1.5611    0.0176 C.3       1 <0>        -0.1806
      2 C2          0.0215    0.0312   -0.0027 C.3       1 <0>         0.1110
      3 H1         -1.0048   -0.3359   -0.0036 H         1 <0>         0.0540
      4 C3          0.7494   -0.4926    1.2369 C.3       1 <0>         0.0791
      5 H2          1.7757   -0.1254    1.2379 H         1 <0>         0.0862
      6 C4          0.7550   -1.9994    1.2170 C.2       1 <0>         0.5003
      7 O1          1.6696   -2.5986    0.6775 O.co2     1 <0>        -0.6824
      8 O2         -0.1552   -2.6194    1.7403 O.co2     1 <0>        -0.6968
      9 N1          0.0616   -0.0227    2.4421 N.am      1 <0>        -0.6771
     10 C5          0.7380    0.0932    3.6021 C.2       1 <0>         0.5758
     11 O3          1.8941   -0.2801    3.6723 O.2       1 <0>        -0.5470
     12 C6          0.0802    0.6694    4.7806 C.2       1 <0>        -0.3106
     13 C7          0.8066    0.9069    5.9531 C.2       1 <0>         0.2524
     14 N2          0.1801    1.4270    6.9942 N.2       1 <0>        -0.5048
     15 C8         -1.1045    1.7240    6.9507 C.2       1 <0>         0.2757
     16 N3         -1.8906    1.5277    5.8535 N.am      1 <0>        -0.4785
     17 C9         -1.2922    0.9970    4.7450 C.2       1 <0>         0.5403
     18 O4         -1.9418    0.8032    3.7321 O.2       1 <0>        -0.5028
     19 C10        -3.2141    1.8894    5.9665 C.2       1 <0>         0.0508
     20 C11        -3.6326    2.4002    7.1245 C.2       1 <0>        -0.2039
     21 S1         -2.1389    2.3804    8.0967 S.3       1 <0>         0.2359
     22 O5          0.6924   -0.4271   -1.1782 O.3       1 <0>        -0.5410
     23 H3          1.0422    1.9282    0.0185 H         1 <0>         0.0613
     24 H4         -0.5027    1.9343   -0.8655 H         1 <0>         0.0530
     25 H5         -0.4959    1.9107    0.9143 H         1 <0>         0.0617
     26 H6         -0.8805    0.2051    2.4052 H         1 <0>         0.4057
     27 H7          1.8588    0.6695    6.0062 H         1 <0>         0.1984
     28 H8         -3.8957    1.7630    5.1383 H         1 <0>         0.1959
     29 H9         -4.6200    2.7387    7.4015 H         1 <0>         0.2231
     30 H10         0.2846   -0.1323   -2.0040 H         1 <0>         0.3651
@<TRIPOS>BOND
     1    1    2 1
     2    1   23 1
     3    1   24 1
     4    1   25 1
     5    2    3 1
     6    2    4 1
     7    2   22 1
     8    4    5 1
     9    4    6 1
    10    4    9 1
    11    6    7 2
    12    6    8 1
    13    9   10 am
    14    9   26 1
    15   10   11 2
    16   10   12 1
    17   12   17 1
    18   12   13 2
    19   13   14 1
    20   13   27 1
    21   14   15 2
    22   15   21 1
    23   15   16 1
    24   16   17 am
    25   16   19 1
    26   17   18 2
    27   19   20 2
    28   19   28 1
    29   20   21 1
    30   20   29 1
    31   22   30 1
@<TRIPOS>MOLECULE
ZINC40532968
   36    37     0     0     0
SMALL
USER_CHARGES

@<TRIPOS>ATOM
      1 C1         -0.0187    1.5258    0.0104 C.3       1 <0>        -0.1405
      2 C2          0.0021   -0.0041    0.0020 C.3       1 <0>         0.1480
      3 C3          0.7421   -0.5109    1.2415 C.3       1 <0>        -0.1409
      4 C4          1.2220    0.5316    2.2533 C.3       1 <0>        -0.1963
      5 C5          2.2328   -0.1860    1.3565 C.3       1 <0>        -0.1529
      6 C6          0.7074   -0.4901   -1.2379 C.2       1 <0>         0.5063
      7 O1          1.8687   -0.1786   -1.4402 O.co2     1 <0>        -0.6950
      8 O2          0.1168   -1.1947   -2.0386 O.co2     1 <0>        -0.6761
      9 N1         -1.3723   -0.5112    0.0124 N.am      1 <0>        -0.7157
     10 C7         -2.2162   -0.1915   -0.9887 C.2       1 <0>         0.7139
     11 O3         -1.8367    0.5178   -1.9005 O.2       1 <0>        -0.5644
     12 N2         -3.4806   -0.6580   -0.9791 N.am      1 <0>        -0.7468
     13 C8         -4.3978   -0.3105   -2.0673 C.3       1 <0>         0.1722
     14 H1         -4.1821    0.7004   -2.4134 H         1 <0>         0.1086
     15 C9         -4.2088   -1.2992   -3.2297 C.3       1 <0>        -0.1470
     16 C10        -5.3896   -1.1093   -4.2241 C.3       1 <0>        -0.5640
     17 S1         -6.7908   -0.8959   -3.0467 S.o2      1 <0>         2.3743
     18 O4         -7.3860   -2.1628   -2.8019 O.2       1 <0>        -0.9390
     19 O5         -7.6024    0.1850   -3.4850 O.2       1 <0>        -0.9413
     20 C11        -5.8556   -0.3768   -1.5515 C.3       1 <0>        -0.5931
     21 H2          1.0039    1.9031    0.0027 H         1 <0>         0.0622
     22 H3         -0.5459    1.8868   -0.8726 H         1 <0>         0.0697
     23 H4         -0.5289    1.8773    0.9072 H         1 <0>         0.0384
     24 H5          0.4050   -1.4719    1.6301 H         1 <0>         0.0936
     25 H6          1.0106    1.5786    2.0358 H         1 <0>         0.0966
     26 H7          1.2007    0.2567    3.3078 H         1 <0>         0.0817
     27 H8          2.8763   -0.9331    1.8210 H         1 <0>         0.0821
     28 H9          2.6863    0.3888    0.5490 H         1 <0>         0.1193
     29 H10        -1.6750   -1.0770    0.7398 H         1 <0>         0.3807
     30 H11        -3.7833   -1.2238   -0.2517 H         1 <0>         0.3916
     31 H12        -3.2650   -1.0963   -3.7359 H         1 <0>         0.1151
     32 H13        -4.2093   -2.3203   -2.8482 H         1 <0>         0.0890
     33 H14        -5.2500   -0.2183   -4.8362 H         1 <0>         0.1408
     34 H15        -5.5281   -1.9942   -4.8453 H         1 <0>         0.1413
     35 H16        -5.9516   -1.1185   -0.7585 H         1 <0>         0.1423
     36 H17        -6.1892    0.6026   -1.2087 H         1 <0>         0.1455
@<TRIPOS>BOND
     1    1    2 1
     2    1   21 1
     3    1   22 1
     4    1   23 1
     5    2    3 1
     6    2    6 1
     7    2    9 1
     8    3    5 1
     9    3    4 1
    10    3   24 1
    11    4    5 1
    12    4   25 1
    13    4   26 1
    14    5   27 1
    15    5   28 1
    16    6    7 2
    17    6    8 1
    18    9   10 am
    19    9   29 1
    20   10   11 2
    21   10   12 am
    22   12   13 1
    23   12   30 1
    24   13   14 1
    25   13   20 1
    26   13   15 1
    27   15   16 1
    28   15   31 1
    29   15   32 1
    30   16   17 1
    31   16   33 1
    32   16   34 1
    33   17   18 2
    34   17   19 2
    35   17   20 1
    36   20   35 1
    37   20   36 1
@<TRIPOS>MOLECULE
ZINC50672806
   29    31     0     0     0
SMALL
USER_CHARGES

@<TRIPOS>ATOM
      1 C1         -0.0178    1.4608    0.0101 C.3       1 <0>         0.0994
      2 N1          0.0021   -0.0041    0.0020 N.pl3     1 <0>        -0.7129
      3 C2          0.6092   -0.6918   -1.0602 C.2       1 <0>         0.4424
      4 C3          0.6903   -2.0320   -1.1900 C.2       1 <0>        -0.6695
      5 N2          1.3682   -2.3002   -2.3826 N.pl3     1 <0>        -0.3815
      6 C4          1.7838   -3.3979   -3.1037 C.2       1 <0>         0.0444
      7 C5          2.4367   -3.2502   -4.2557 C.2       1 <0>        -0.1913
      8 S1          2.5140   -1.4725   -4.4098 S.3       1 <0>         0.1465
      9 C6          1.6578   -1.0684   -2.9053 C.2       1 <0>         0.2430
     10 N3          1.2043   -0.1281   -2.1252 N.2       1 <0>        -0.4830
     11 S2          0.0572   -3.2275   -0.0610 S.o2      1 <0>         2.7290
     12 O1         -0.9888   -2.5910    0.6601 O.2       1 <0>        -0.9517
     13 O2         -0.1469   -4.4207   -0.8051 O.2       1 <0>        -0.9661
     14 N4          1.2574   -3.5514    1.0331 N.pl3     1 <0>        -1.1024
     15 C7          1.7215   -2.5017    1.9435 C.3       1 <0>         0.2405
     16 C8          2.5255   -3.1219    3.0571 C.2       1 <0>         0.0362
     17 N5          2.0601   -3.5622    4.2170 N.2       1 <0>        -0.3689
     18 N6          3.0605   -4.0189    4.8902 N.2       1 <0>        -0.1919
     19 N7          4.1339   -3.8797    4.1927 N.2       1 <0>        -0.1924
     20 N8          3.8329   -3.3371    3.0625 N.2       1 <0>        -0.3730
     21 H1          1.0048    1.8381    0.0023 H         1 <0>         0.0593
     22 H2         -0.5450    1.8219   -0.8730 H         1 <0>         0.0569
     23 H3         -0.5280    1.8123    0.9069 H         1 <0>         0.0801
     24 H4         -0.4044   -0.4986    0.7308 H         1 <0>         0.4259
     25 H5          1.5781   -4.3903   -2.7306 H         1 <0>         0.1868
     26 H6          2.8197   -4.0083   -4.9228 H         1 <0>         0.2218
     27 H7          1.6530   -4.4363    1.0711 H         1 <0>         0.4209
     28 H8          2.3447   -1.7949    1.3955 H         1 <0>         0.0689
     29 H9          0.8622   -1.9788    2.3634 H         1 <0>         0.0829
@<TRIPOS>BOND
     1    1    2 1
     2    1   21 1
     3    1   22 1
     4    1   23 1
     5    2    3 1
     6    2   24 1
     7    3   10 1
     8    3    4 2
     9    4    5 1
    10    4   11 1
    11    5    9 1
    12    5    6 1
    13    6    7 2
    14    6   25 1
    15    7    8 1
    16    7   26 1
    17    8    9 1
    18    9   10 2
    19   11   12 2
    20   11   13 2
    21   11   14 1
    22   14   15 1
    23   14   27 1
    24   15   16 1
    25   15   28 1
    26   15   29 1
    27   16   20 2
    28   16   17 1
    29   17   18 1
    30   18   19 2
    31   19   20 1
@<TRIPOS>MOLECULE
ZINC03213168
   28    29     0     0     0
SMALL
USER_CHARGES
2-[5-[(3,4-dihydroxyphenyl)methylene]-4-oxo-2-thioxo-thiazolidin-3-yl]acetic acid
@<TRIPOS>ATOM
      1 C1          3.3480    5.0268   -0.3968 C.ar      1 <0>        -0.0733
      2 C2          4.6574    5.4455   -0.3016 C.ar      1 <0>        -0.1325
      3 C3          5.6101    4.6281    0.2908 C.ar      1 <0>         0.0994
      4 C4          5.2481    3.3783    0.7929 C.ar      1 <0>         0.0884
      5 C5          3.9377    2.9524    0.7073 C.ar      1 <0>        -0.1056
      6 C6          2.9764    3.7738    0.1047 C.ar      1 <0>        -0.0746
      7 C7          1.5820    3.3245    0.0048 C.2       1 <0>         0.0553
      8 C8          1.2550    2.0482    0.3317 C.2       1 <0>        -0.2103
      9 C9         -0.0753    1.4197    0.4560 C.2       1 <0>         0.5468
     10 O1         -1.0995    2.0455    0.2535 O.2       1 <0>        -0.4526
     11 N1         -0.0975    0.1412    0.7931 N.am      1 <0>        -0.4890
     12 C10         1.0398   -0.5497    1.0117 C.2       1 <0>         0.2842
     13 S1          1.2166   -2.1944    1.4529 S.2       1 <0>        -0.3507
     14 S2          2.3167    0.6663    0.7303 S.3       1 <0>         0.0502
     15 C11        -1.3870   -0.5400    0.9326 C.3       1 <0>         0.0343
     16 C12        -1.7861   -1.1363   -0.3926 C.2       1 <0>         0.4671
     17 O2         -1.0671   -1.0057   -1.3549 O.co2     1 <0>        -0.6243
     18 O3          6.1854    2.5810    1.3719 O.3       1 <0>        -0.4817
     19 O4          6.8993    5.0470    0.3820 O.3       1 <0>        -0.4855
     20 H1          2.6090    5.6648   -0.8585 H         1 <0>         0.1431
     21 H2          4.9430    6.4125   -0.6885 H         1 <0>         0.1414
     22 H3          3.6553    1.9869    1.1002 H         1 <0>         0.1441
     23 H4          0.8166    4.0095   -0.3288 H         1 <0>         0.1658
     24 H5         -1.3008   -1.3322    1.6763 H         1 <0>         0.1179
     25 H6         -2.1439    0.1766    1.2512 H         1 <0>         0.1081
     26 H7          6.2827    2.7162    2.3245 H         1 <0>         0.3899
     27 H8          7.0981    5.5338    1.1934 H         1 <0>         0.3902
     28 O5         -2.9402   -1.8126   -0.5040 O.co2     1 <0>        -0.7459
@<TRIPOS>BOND
     1    1    6 ar
     2    1    2 ar
     3    1   20 1
     4    2    3 ar
     5    2   21 1
     6    3    4 ar
     7    3   19 1
     8    4    5 ar
     9    4   18 1
    10    5    6 ar
    11    5   22 1
    12    6    7 1
    13    7    8 2
    14    7   23 1
    15    8   14 1
    16    8    9 1
    17    9   10 2
    18    9   11 am
    19   11   12 1
    20   11   15 1
    21   12   13 2
    22   12   14 1
    23   15   16 1
    24   15   24 1
    25   15   25 1
    26   16   17 2
    27   16   28 1
    28   18   26 1
    29   19   27 1
@<TRIPOS>MOLECULE
ZINC09044928
   32    33     0     0     0
SMALL
USER_CHARGES

@<TRIPOS>ATOM
      1 C1          0.9811    1.5396   -0.2258 C.2       1 <0>        -0.1857
      2 C2          0.4997    0.3303   -0.0776 C.2       1 <0>        -0.1490
      3 C3          1.4303   -0.8549   -0.0657 C.3       1 <0>         0.1205
      4 N1          1.2200   -1.6287    1.1604 N.am      1 <0>        -0.5416
      5 C4          1.9364   -1.3299    2.2654 C.2       1 <0>         0.5604
      6 O1          2.7540   -0.4287    2.2603 O.2       1 <0>        -0.5086
      7 C5          1.6937   -2.1336    3.4805 C.2       1 <0>        -0.2573
      8 C6          2.3843   -1.8941    4.6570 C.2       1 <0>         0.0751
      9 C7          2.3008   -2.8486    5.7606 C.ar      1 <0>        -0.0796
     10 C8          2.4505   -4.2227    5.5166 C.ar      1 <0>         0.0087
     11 C9          2.3722   -5.1135    6.5486 C.ar      1 <0>        -0.1472
     12 C10         2.1438   -4.6674    7.8453 C.ar      1 <0>         0.1025
     13 C11         1.9923   -3.3036    8.1036 C.ar      1 <0>         0.0539
     14 C12         2.0762   -2.3940    7.0700 C.ar      1 <0>        -0.0964
     15 O2          1.7685   -2.8720    9.3737 O.3       1 <0>        -0.4864
     16 O3          2.0672   -5.5609    8.8639 O.3       1 <0>        -0.4881
     17 C13         0.6843   -3.2003    3.3845 C.2       1 <0>         0.4905
     18 O4          0.4012   -3.9811    4.4489 O.3       1 <0>        -0.5748
     19 N2          0.0612   -3.3759    2.2328 N.2       1 <0>        -0.5967
     20 C14         0.3153   -2.6184    1.1687 C.2       1 <0>         0.5448
     21 S1         -0.5566   -2.9290   -0.2716 S.2       1 <0>        -0.6662
     22 H1          2.0449    1.6872   -0.3395 H         1 <0>         0.0960
     23 H2          0.3137    2.3887   -0.2387 H         1 <0>         0.0969
     24 H3         -0.5642    0.1828    0.0362 H         1 <0>         0.1154
     25 H4          1.2276   -1.4847   -0.9320 H         1 <0>         0.1279
     26 H5          2.4625   -0.5068   -0.1031 H         1 <0>         0.0875
     27 H6          2.9845   -1.0021    4.7588 H         1 <0>         0.1458
     28 H7          2.6275   -4.5759    4.5114 H         1 <0>         0.1256
     29 H8          2.4880   -6.1700    6.3565 H         1 <0>         0.1318
     30 H9          1.9644   -1.3378    7.2661 H         1 <0>         0.1329
     31 H10         2.5748   -2.6749    9.8699 H         1 <0>         0.3786
     32 H11         2.9160   -5.7478    9.2878 H         1 <0>         0.3828
@<TRIPOS>BOND
     1    1    2 2
     2    1   22 1
     3    1   23 1
     4    2    3 1
     5    2   24 1
     6    3    4 1
     7    3   25 1
     8    3   26 1
     9    4   20 1
    10    4    5 am
    11    5    6 2
    12    5    7 1
    13    7    8 2
    14    7   17 1
    15    8    9 1
    16    8   27 1
    17    9   14 ar
    18    9   10 ar
    19   10   11 ar
    20   10   28 1
    21   11   12 ar
    22   11   29 1
    23   12   13 ar
    24   12   16 1
    25   13   14 ar
    26   13   15 1
    27   14   30 1
    28   15   31 1
    29   16   32 1
    30   17   18 1
    31   17   19 2
    32   19   20 1
    33   20   21 2
@<TRIPOS>MOLECULE
ZINC15913583
   39    41     0     0     0
SMALL
USER_CHARGES

@<TRIPOS>ATOM
      1 C1         -0.0174    1.4604    0.0542 C.3       1 <0>         0.0705
      2 N1          0.0024   -0.0041    0.0249 N.pl3     1 <0>        -0.5247
      3 C2         -1.1960   -0.6908    0.0094 C.ar      1 <0>         0.2143
      4 C3         -2.4064   -0.0046    0.0214 C.ar      1 <0>        -0.1879
      5 C4         -3.5936   -0.7041    0.0052 C.ar      1 <0>        -0.0692
      6 C5         -3.5971   -2.0913   -0.0225 C.ar      1 <0>        -0.1806
      7 C6         -2.4099   -2.7896   -0.0348 C.ar      1 <0>        -0.0318
      8 C7         -1.2005   -2.0946   -0.0191 C.ar      1 <0>        -0.1889
      9 C8          0.0889   -2.8105   -0.0316 C.2       1 <0>         0.4296
     10 O1          0.1319   -4.0285   -0.0567 O.2       1 <0>        -0.5497
     11 C9          1.2808   -2.0339   -0.0138 C.2       1 <0>        -0.4866
     12 C10         1.1933   -0.6446    0.0082 C.2       1 <0>         0.5263
     13 O2          2.3274    0.0824    0.0190 O.3       1 <0>        -0.6271
     14 C11         2.5919   -2.6918   -0.0246 C.2       1 <0>         0.5984
     15 O3          3.6059   -2.0262   -0.1233 O.2       1 <0>        -0.5589
     16 N2          2.6735   -4.0334    0.0749 N.am      1 <0>        -0.5314
     17 N3          3.9259   -4.6538    0.1714 N.am      1 <0>        -0.5094
     18 C12         4.0075   -5.9954    0.2709 C.2       1 <0>         0.5435
     19 O4          2.9943   -6.6672    0.2768 O.2       1 <0>        -0.5281
     20 C13         5.3278   -6.6494    0.3727 C.ar      1 <0>        -0.1559
     21 C14         6.4937   -5.8806    0.3720 C.ar      1 <0>        -0.0592
     22 C15         7.7230   -6.4973    0.4672 C.ar      1 <0>        -0.1376
     23 C16         7.8054   -7.8761    0.5636 C.ar      1 <0>        -0.0688
     24 C17         6.6574   -8.6456    0.5647 C.ar      1 <0>        -0.1661
     25 C18         5.4165   -8.0410    0.4760 C.ar      1 <0>         0.1600
     26 F1          4.2941   -8.7930    0.4832 F         1 <0>        -0.1135
     27 H1          1.0053    1.8376    0.0583 H         1 <0>         0.1012
     28 H2         -0.5389    1.8345   -0.8268 H         1 <0>         0.0594
     29 H3         -0.5331    1.7990    0.9528 H         1 <0>         0.0595
     30 H4         -2.4154    1.0751    0.0436 H         1 <0>         0.1259
     31 H5         -4.5306   -0.1672    0.0145 H         1 <0>         0.1210
     32 H6         -4.5353   -2.6261   -0.0342 H         1 <0>         0.1202
     33 H7         -2.4154   -3.8694   -0.0560 H         1 <0>         0.1328
     34 H8          1.8651   -4.5695    0.0796 H         1 <0>         0.4380
     35 H9          4.7343   -4.1178    0.1667 H         1 <0>         0.4211
     36 H10         6.4324   -4.8050    0.2966 H         1 <0>         0.1390
     37 H11         8.6248   -5.9030    0.4663 H         1 <0>         0.1367
     38 H12         8.7717   -8.3526    0.6379 H         1 <0>         0.1366
     39 H13         6.7292   -9.7206    0.6394 H         1 <0>         0.1417
@<TRIPOS>BOND
     1    1    2 1
     2    1   27 1
     3    1   28 1
     4    1   29 1
     5    2   12 1
     6    2    3 1
     7    3    8 ar
     8    3    4 ar
     9    4    5 ar
    10    4   30 1
    11    5    6 ar
    12    5   31 1
    13    6    7 ar
    14    6   32 1
    15    7    8 ar
    16    7   33 1
    17    8    9 1
    18    9   10 2
    19    9   11 1
    20   11   12 2
    21   11   14 1
    22   12   13 1
    23   14   15 2
    24   14   16 am
    25   16   17 1
    26   16   34 1
    27   17   18 am
    28   17   35 1
    29   18   19 2
    30   18   20 1
    31   20   25 ar
    32   20   21 ar
    33   21   22 ar
    34   21   36 1
    35   22   23 ar
    36   22   37 1
    37   23   24 ar
    38   23   38 1
    39   24   25 ar
    40   24   39 1
    41   25   26 1
@<TRIPOS>MOLECULE
ZINC44883033
   33    34     0     0     0
SMALL
USER_CHARGES

@<TRIPOS>ATOM
      1 C1         -0.0187    1.5258    0.0104 C.3       1 <0>        -0.1592
      2 C2          0.0021   -0.0041    0.0020 C.3       1 <0>         0.2703
      3 H1         -1.0205   -0.3814    0.0098 H         1 <0>         0.0853
      4 C3          0.7074   -0.4901   -1.2379 C.2       1 <0>         0.0438
      5 N1          0.1410   -1.0148   -2.3147 N.2       1 <0>        -0.3800
      6 N2          1.0812   -1.3010   -3.1494 N.2       1 <0>        -0.1942
      7 N3          2.2144   -0.9739   -2.6329 N.2       1 <0>        -0.1942
      8 N4          2.0130   -0.4696   -1.4634 N.2       1 <0>        -0.3761
      9 N5          0.7106   -0.4894    1.1889 N.pl3     1 <0>        -1.0977
     10 S1         -0.1388   -0.9023    2.5492 S.o2      1 <0>         2.6955
     11 O1          0.8143   -1.3537    3.5016 O.2       1 <0>        -0.9633
     12 O2         -1.0297    0.1727    2.8136 O.2       1 <0>        -0.9552
     13 C4         -1.1374   -2.2943    2.1373 C.ar      1 <0>        -0.6732
     14 C5         -2.4144   -2.1046    1.6393 C.ar      1 <0>        -0.0064
     15 C6         -3.2047   -3.1921    1.3135 C.ar      1 <0>        -0.1358
     16 C7         -2.7233   -4.4742    1.4832 C.ar      1 <0>        -0.0395
     17 C8         -1.4365   -4.6722    1.9845 C.ar      1 <0>        -0.0126
     18 C9         -0.6424   -3.5707    2.3067 C.ar      1 <0>         0.0116
     19 C10        -0.9310   -6.0000    2.1634 C.1       1 <0>        -0.1081
     20 C11        -0.5166   -7.0886    2.3102 C.1       1 <0>        -0.1660
     21 C12         0.0030   -8.4535    2.4941 C.3       1 <0>         0.1943
     22 O3          1.3320   -8.3910    3.0157 O.3       1 <0>        -0.5674
     23 H2          1.0039    1.9031    0.0027 H         1 <0>         0.0649
     24 H3         -0.5459    1.8868   -0.8726 H         1 <0>         0.0653
     25 H4         -0.5289    1.8773    0.9072 H         1 <0>         0.0683
     26 H5          1.6773   -0.5688    1.1779 H         1 <0>         0.4259
     27 H6         -2.7957   -1.1032    1.5047 H         1 <0>         0.1467
     28 H7         -4.2008   -3.0374    0.9259 H         1 <0>         0.1405
     29 H8         -3.3415   -5.3224    1.2288 H         1 <0>         0.1343
     30 H9          0.3561   -3.7174    2.6913 H         1 <0>         0.1437
     31 H10        -0.6360   -8.9946    3.1920 H         1 <0>         0.0747
     32 H11         0.0132   -8.9708    1.5348 H         1 <0>         0.0764
     33 H12         1.7381   -9.2562    3.1623 H         1 <0>         0.3874
@<TRIPOS>BOND
     1    1    2 1
     2    1   23 1
     3    1   24 1
     4    1   25 1
     5    2    3 1
     6    2    4 1
     7    2    9 1
     8    4    5 1
     9    4    8 2
    10    5    6 1
    11    6    7 2
    12    7    8 1
    13    9   10 1
    14    9   26 1
    15   10   11 2
    16   10   12 2
    17   10   13 1
    18   13   18 ar
    19   13   14 ar
    20   14   15 ar
    21   14   27 1
    22   15   16 ar
    23   15   28 1
    24   16   17 ar
    25   16   29 1
    26   17   18 ar
    27   17   19 1
    28   18   30 1
    29   19   20 3
    30   20   21 1
    31   21   22 1
    32   21   31 1
    33   21   32 1
    34   22   33 1
@<TRIPOS>MOLECULE
ZINC55678604
   34    35     0     0     0
SMALL
USER_CHARGES

@<TRIPOS>ATOM
      1 C1         -0.0184    1.5028    0.0103 C.3       1 <0>        -0.1024
      2 C2          0.0021   -0.0041    0.0020 C.2       1 <0>         0.1688
      3 C3          0.0080   -0.8177   -1.1355 C.2       1 <0>        -0.7388
      4 C4          0.0282   -2.1083   -0.7242 C.2       1 <0>         0.2259
      5 N1          0.0348   -2.1091    0.6256 N.pl3     1 <0>        -0.3640
      6 N2          0.0231   -0.7767    1.0577 N.2       1 <0>        -0.2871
      7 C5          0.0550   -3.2942    1.4866 C.3       1 <0>         0.0913
      8 Cl1         0.0425   -3.5094   -1.7491 Cl        1 <0>         0.0289
      9 S1         -0.0089   -0.2625   -2.8077 S.o2      1 <0>         2.6364
     10 O1         -0.5483   -1.3243   -3.5828 O.2       1 <0>        -1.0151
     11 O2         -0.5787    1.0392   -2.7976 O.2       1 <0>        -1.0218
     12 N3          1.5682   -0.0851   -3.2806 N.2       1 <0>        -1.0805
     13 C6          1.8646    0.3487   -4.5747 C.ar      1 <0>         0.2906
     14 C7          0.8376    0.6370   -5.4642 C.ar      1 <0>        -0.2551
     15 C8          1.1349    1.0667   -6.7447 C.ar      1 <0>         0.1366
     16 C9          2.4553    1.2091   -7.1391 C.ar      1 <0>        -0.1708
     17 C10         3.4782    0.9220   -6.2548 C.ar      1 <0>        -0.6030
     18 C11         3.1871    0.4979   -4.9728 C.ar      1 <0>        -0.0817
     19 S2          5.1560    1.1035   -6.7615 S.o2      1 <0>         2.7038
     20 O3          5.9270    0.2503   -5.9268 O.2       1 <0>        -0.9676
     21 O4          5.1663    0.9954   -8.1784 O.2       1 <0>        -0.9731
     22 N4          5.6109    2.6547   -6.4020 N.pl3     1 <0>        -1.2514
     23 F1          0.1373    1.3473   -7.6115 F         1 <0>        -0.1482
     24 H1          1.0042    1.8801    0.0026 H         1 <0>         0.0880
     25 H2         -0.5455    1.8639   -0.8728 H         1 <0>         0.1161
     26 H3         -0.5286    1.8543    0.9071 H         1 <0>         0.0758
     27 H4          1.0875   -3.5743    1.6951 H         1 <0>         0.0829
     28 H5         -0.4573   -3.0720    2.4227 H         1 <0>         0.0968
     29 H6         -0.4503   -4.1181    0.9826 H         1 <0>         0.0902
     30 H7         -0.1916    0.5255   -5.1564 H         1 <0>         0.1182
     31 H8          2.6859    1.5448   -8.1393 H         1 <0>         0.1358
     32 H9          3.9873    0.2786   -4.2815 H         1 <0>         0.1412
     33 H10         4.9783    3.2619   -5.9873 H         1 <0>         0.4183
     34 H11         6.5101    2.9561   -6.6060 H         1 <0>         0.4152
@<TRIPOS>BOND
     1    1    2 1
     2    1   24 1
     3    1   25 1
     4    1   26 1
     5    2    6 2
     6    2    3 1
     7    3    4 2
     8    3    9 1
     9    4    5 1
    10    4    8 1
    11    5    6 1
    12    5    7 1
    13    7   27 1
    14    7   28 1
    15    7   29 1
    16    9   10 2
    17    9   11 2
    18    9   12 1
    19   12   13 1
    20   13   18 ar
    21   13   14 ar
    22   14   15 ar
    23   14   30 1
    24   15   16 ar
    25   15   23 1
    26   16   17 ar
    27   16   31 1
    28   17   18 ar
    29   17   19 1
    30   18   32 1
    31   19   20 2
    32   19   21 2
    33   19   22 1
    34   22   33 1
    35   22   34 1
@<TRIPOS>MOLECULE
ZINC04021972
   34    35     0     0     0
SMALL
USER_CHARGES
2-(3-chlorophenoxy)-6-(hydroxymethyl)tetrahydropyran-3,4,5-triol
@<TRIPOS>ATOM
      1 C1          2.3002   -2.4254    4.4847 C.ar      1 <0>        -0.0678
      2 C2          1.7972   -1.7952    3.3627 C.ar      1 <0>        -0.1807
      3 C3          1.3789   -2.5471    2.2746 C.ar      1 <0>         0.1397
      4 C4          1.4764   -3.9305    2.3114 C.ar      1 <0>        -0.1407
      5 C5          1.9851   -4.5565    3.4340 C.ar      1 <0>        -0.0001
      6 C6          2.3968   -3.8038    4.5201 C.ar      1 <0>        -0.1426
      7 Cl1         2.1083   -6.2875    3.4813 Cl        1 <0>        -0.0590
      8 O1          0.8795   -1.9292    1.1720 O.3       1 <0>        -0.2919
      9 C7          0.8084   -0.5023    1.2042 C.3       1 <0>         0.2248
     10 H1          0.3216   -0.1832    2.1258 H         1 <0>         0.0700
     11 C8          0.0021   -0.0041    0.0020 C.3       1 <0>         0.0662
     12 H2         -1.0182   -0.3825    0.0644 H         1 <0>         0.0738
     13 C9         -0.0187    1.5275    0.0104 C.3       1 <0>         0.0795
     14 H3         -0.5266    1.8804    0.9080 H         1 <0>         0.0806
     15 C10         1.4223    2.0468   -0.0005 C.3       1 <0>         0.0899
     16 H4          1.4178    3.1351    0.0612 H         1 <0>         0.0761
     17 C11         2.1738    1.4693    1.2018 C.3       1 <0>         0.1116
     18 H5          1.7049    1.8143    2.1234 H         1 <0>         0.0809
     19 O2          2.1285    0.0420    1.1493 O.3       1 <0>        -0.3617
     20 C12         3.6306    1.9353    1.1651 C.3       1 <0>         0.0894
     21 O3          4.3023    1.4923    2.3460 O.3       1 <0>        -0.5687
     22 O4          2.0679    1.6384   -1.2082 O.3       1 <0>        -0.5282
     23 O5         -0.7069    2.0027   -1.1483 O.3       1 <0>        -0.5455
     24 O6          0.6100   -0.4668   -1.2056 O.3       1 <0>        -0.5207
     25 H6          2.6221   -1.8401    5.3334 H         1 <0>         0.1370
     26 H7          1.7259   -0.7179    3.3344 H         1 <0>         0.1342
     27 H8          1.1548   -4.5178    1.4640 H         1 <0>         0.1419
     28 H9          2.7944   -4.2941    5.3964 H         1 <0>         0.1366
     29 H10         4.1239    1.5169    0.2878 H         1 <0>         0.0702
     30 H11         3.6628    3.0237    1.1155 H         1 <0>         0.0650
     31 H12         5.2326    1.7526    2.3904 H         1 <0>         0.3848
     32 H13         1.6413    1.9651   -2.0122 H         1 <0>         0.3857
     33 H14        -1.6251    1.7058   -1.2097 H         1 <0>         0.3874
     34 H15         0.6568   -1.4299   -1.2784 H         1 <0>         0.3822
@<TRIPOS>BOND
     1    1    6 ar
     2    1    2 ar
     3    1   25 1
     4    2    3 ar
     5    2   26 1
     6    3    4 ar
     7    3    8 1
     8    4    5 ar
     9    4   27 1
    10    5    6 ar
    11    5    7 1
    12    6   28 1
    13    8    9 1
    14    9   10 1
    15    9   19 1
    16    9   11 1
    17   11   12 1
    18   11   13 1
    19   11   24 1
    20   13   14 1
    21   13   15 1
    22   13   23 1
    23   15   16 1
    24   15   17 1
    25   15   22 1
    26   17   18 1
    27   17   19 1
    28   17   20 1
    29   20   21 1
    30   20   29 1
    31   20   30 1
    32   21   31 1
    33   22   32 1
    34   23   33 1
    35   24   34 1
@<TRIPOS>MOLECULE
ZINC20945704
   28    29     0     0     0
SMALL
USER_CHARGES
1-(2,5-difluorophenyl)-3-(2,4-dioxo-1H-pyrimidin-5-yl)urea
@<TRIPOS>ATOM
      1 C1          4.6943    8.3058   -0.1994 C.ar      1 <0>        -0.1438
      2 C2          5.7418    7.6145    0.3815 C.ar      1 <0>        -0.1031
      3 C3          5.7472    6.2320    0.3757 C.ar      1 <0>         0.0588
      4 C4          4.6978    5.5362   -0.2151 C.ar      1 <0>         0.1736
      5 C5          3.6508    6.2323   -0.8017 C.ar      1 <0>        -0.1358
      6 C6          3.6482    7.6161   -0.7882 C.ar      1 <0>         0.1135
      7 F1          2.6265    8.2947   -1.3547 F         1 <0>        -0.1304
      8 N1          4.7009    4.1357   -0.2229 N.am      1 <0>        -0.6920
      9 C7          3.5399    3.4587   -0.1217 C.2       1 <0>         0.7153
     10 O1          2.4840    4.0616   -0.1043 O.2       1 <0>        -0.5486
     11 N2          3.5492    2.1134   -0.0399 N.am      1 <0>        -0.6725
     12 C8          2.3361    1.4004   -0.0359 C.2       1 <0>        -0.0137
     13 C9          2.0745    0.4847   -0.9979 C.2       1 <0>         0.1674
     14 N3          0.8854   -0.2001   -0.9762 N.am      1 <0>        -0.6473
     15 H1          0.6657   -0.9455   -1.7548 H         1 <0>         0.4719
     16 C10        -0.0205    0.0302   -0.0087 C.2       1 <0>         0.6985
     17 O2         -1.0674   -0.5886   -0.0097 O.2       1 <0>        -0.5433
     18 N4          0.2136    0.9341    0.9603 N.am      1 <0>        -0.6703
     19 H2         -0.5389    1.1082    1.7435 H         1 <0>         0.4640
     20 C11         1.3681    1.6303    0.9781 C.2       1 <0>         0.5494
     21 O3          1.5792    2.4481    1.8554 O.2       1 <0>        -0.4899
     22 F2          6.7707    5.5575    0.9437 F         1 <0>        -0.1330
     23 H3          4.6924    9.3858   -0.1939 H         1 <0>         0.1478
     24 H4          6.5567    8.1552    0.8398 H         1 <0>         0.1511
     25 H5          2.8366    5.6947   -1.2649 H         1 <0>         0.1618
     26 H6          5.6509    3.5883   -0.3116 H         1 <0>         0.4374
     27 H7          4.5051    1.5728    0.0237 H         1 <0>         0.4322
     28 H8          2.7970    0.2944   -1.7778 H         1 <0>         0.1811
@<TRIPOS>BOND
     1    1    6 ar
     2    1    2 ar
     3    1   23 1
     4    2    3 ar
     5    2   24 1
     6    3    4 ar
     7    3   22 1
     8    4    5 ar
     9    4    8 1
    10    5    6 ar
    11    5   25 1
    12    6    7 1
    13    8    9 am
    14    8   26 1
    15    9   10 2
    16    9   11 am
    17   11   12 1
    18   11   27 1
    19   12   20 1
    20   12   13 2
    21   13   14 1
    22   13   28 1
    23   14   15 1
    24   14   16 am
    25   16   17 2
    26   16   18 am
    27   18   19 1
    28   18   20 am
    29   20   21 2
@<TRIPOS>MOLECULE
ZINC40516982
   34    36     0     0     0
SMALL
USER_CHARGES

@<TRIPOS>ATOM
      1 C1         -0.1439   -0.7768   -2.7681 C.ar      1 <0>        -0.0414
      2 C2          0.5526   -0.1010   -3.7459 C.ar      1 <0>        -0.1990
      3 C3          0.4805    1.2859   -3.8206 C.ar      1 <0>         0.2319
      4 C4         -0.2948    1.9948   -2.9093 C.ar      1 <0>        -0.2001
      5 C5         -0.9940    1.3248   -1.9295 C.ar      1 <0>        -0.0209
      6 C6         -0.9233   -0.0677   -1.8516 C.ar      1 <0>        -0.0792
      7 C7         -1.6719   -0.7895   -0.8018 C.2       1 <0>         0.2912
      8 N1         -2.6942   -0.3181   -0.1224 N.2       1 <0>        -0.4764
      9 C8         -3.1189   -1.2484    0.7418 C.2       1 <0>        -0.0079
     10 C9         -2.3434   -2.3423    0.6072 C.2       1 <0>        -0.0489
     11 N2         -1.4243   -2.0648   -0.3740 N.pl3     1 <0>        -0.4171
     12 C10        -0.4245   -2.9207   -0.8437 C.ar      1 <0>         0.3352
     13 C11        -0.7640   -4.1884   -1.2998 C.ar      1 <0>        -0.1042
     14 C12         0.2461   -5.0314   -1.7663 C.ar      1 <0>        -0.0741
     15 C13         1.5627   -4.5570   -1.7528 C.ar      1 <0>        -0.1389
     16 C14         1.8137   -3.2836   -1.2827 C.ar      1 <0>         0.1248
     17 N3          0.8334   -2.5129   -0.8542 N.ar      1 <0>        -0.4558
     18 C15        -0.0672   -6.3920   -2.2620 C.2       1 <0>         0.5645
     19 O1         -1.2161   -6.7876   -2.2661 O.2       1 <0>        -0.5224
     20 N4          0.9222   -7.1910   -2.7084 N.am      1 <0>        -0.8426
     21 N5          1.1875    1.9671   -4.8112 N.pl3     1 <0>        -0.8734
     22 H1         -0.0908   -1.8541   -2.7131 H         1 <0>         0.1090
     23 H2          1.1555   -0.6488   -4.4550 H         1 <0>         0.1216
     24 H3         -0.3486    3.0718   -2.9696 H         1 <0>         0.1272
     25 H4         -1.5956    1.8759   -1.2218 H         1 <0>         0.1353
     26 H5         -3.9434   -1.1402    1.4309 H         1 <0>         0.1800
     27 H6         -2.4311   -3.2641    1.1630 H         1 <0>         0.1807
     28 H7         -1.7929   -4.5165   -1.2931 H         1 <0>         0.1577
     29 H8          2.3720   -5.1794   -2.1052 H         1 <0>         0.1506
     30 H9          2.8275   -2.9116   -1.2697 H         1 <0>         0.1772
     31 H10         1.8394   -6.8752   -2.7051 H         1 <0>         0.4034
     32 H11         0.7171   -8.0818   -3.0329 H         1 <0>         0.4125
     33 H12         1.7288    1.4737   -5.4471 H         1 <0>         0.3991
     34 H13         1.1379    2.9344   -4.8642 H         1 <0>         0.4005
@<TRIPOS>BOND
     1    1    6 ar
     2    1    2 ar
     3    1   22 1
     4    2    3 ar
     5    2   23 1
     6    3    4 ar
     7    3   21 1
     8    4    5 ar
     9    4   24 1
    10    5    6 ar
    11    5   25 1
    12    6    7 1
    13    7   11 1
    14    7    8 2
    15    8    9 1
    16    9   10 2
    17    9   26 1
    18   10   11 1
    19   10   27 1
    20   11   12 1
    21   12   17 ar
    22   12   13 ar
    23   13   14 ar
    24   13   28 1
    25   14   15 ar
    26   14   18 1
    27   15   16 ar
    28   15   29 1
    29   16   17 ar
    30   16   30 1
    31   18   19 2
    32   18   20 am
    33   20   31 1
    34   20   32 1
    35   21   33 1
    36   21   34 1
@<TRIPOS>MOLECULE
ZINC49212168
   35    35     0     0     0
SMALL
USER_CHARGES

@<TRIPOS>ATOM
      1 C1         -0.0184    1.5028    0.0103 C.3       1 <0>        -0.0998
      2 C2          0.0021   -0.0041    0.0020 C.2       1 <0>        -0.0620
      3 C3          0.0061   -0.7130   -1.1426 C.2       1 <0>        -0.2247
      4 S1          0.0317   -2.4004   -0.5786 S.3       1 <0>         0.3119
      5 C4          0.0366   -2.1573    1.0815 C.2       1 <0>         0.0806
      6 C5          0.0247   -0.7781    1.2218 C.2       1 <0>        -0.1493
      7 C6          0.0290   -0.1526    2.5100 C.1       1 <0>         0.2725
      8 N1          0.0324    0.3436    3.5319 N.1       1 <0>        -0.4299
      9 N2          0.0545   -3.1169    2.0843 N.am      1 <0>        -0.6329
     10 C7          0.0712   -4.4259    1.7642 C.2       1 <0>         0.7010
     11 O1          0.0705   -4.7664    0.5970 O.2       1 <0>        -0.5494
     12 N3          0.0886   -5.3576    2.7379 N.am      1 <0>        -0.7309
     13 C8          0.1067   -6.7806    2.3899 C.3       1 <0>         0.1351
     14 C9          0.1243   -7.6185    3.6699 C.3       1 <0>        -0.1201
     15 C10         0.1432   -9.1046    3.3065 C.3       1 <0>        -0.1392
     16 C11         0.1605   -9.9299    4.5673 C.2       1 <0>         0.5161
     17 O2          0.1579   -9.3833    5.6500 O.2       1 <0>        -0.5435
     18 N4          0.1788  -11.2754    4.4918 N.am      1 <0>        -0.8568
     19 C12        -0.0086   -0.2008   -2.5598 C.3       1 <0>        -0.0653
     20 H1          1.0042    1.8801    0.0026 H         1 <0>         0.0751
     21 H2         -0.5455    1.8639   -0.8728 H         1 <0>         0.0768
     22 H3         -0.5286    1.8543    0.9071 H         1 <0>         0.0627
     23 H4          0.0550   -2.8453    3.0155 H         1 <0>         0.4174
     24 H5          0.0891   -5.0860    3.6691 H         1 <0>         0.4042
     25 H6         -0.7827   -7.0238    1.8086 H         1 <0>         0.0755
     26 H7          0.9971   -6.9991    1.8004 H         1 <0>         0.0755
     27 H8          1.0136   -7.3753    4.2512 H         1 <0>         0.0803
     28 H9         -0.7661   -7.3999    4.2595 H         1 <0>         0.0803
     29 H10        -0.7462   -9.3478    2.7252 H         1 <0>         0.1010
     30 H11         1.0336   -9.3231    2.7170 H         1 <0>         0.1010
     31 H12         0.1808  -11.7126    3.6259 H         1 <0>         0.4031
     32 H13         0.1899  -11.8066    5.3033 H         1 <0>         0.4031
     33 H14         1.0154   -0.0629   -2.9069 H         1 <0>         0.0777
     34 H15        -0.5157   -0.9215   -3.2014 H         1 <0>         0.0737
     35 H16        -0.5361    0.7523   -2.5963 H         1 <0>         0.0795
@<TRIPOS>BOND
     1    1    2 1
     2    1   20 1
     3    1   21 1
     4    1   22 1
     5    2    6 1
     6    2    3 2
     7    3    4 1
     8    3   19 1
     9    4    5 1
    10    5    6 2
    11    5    9 1
    12    6    7 1
    13    7    8 3
    14    9   10 am
    15    9   23 1
    16   10   11 2
    17   10   12 am
    18   12   13 1
    19   12   24 1
    20   13   14 1
    21   13   25 1
    22   13   26 1
    23   14   15 1
    24   14   27 1
    25   14   28 1
    26   15   16 1
    27   15   29 1
    28   15   30 1
    29   16   17 2
    30   16   18 am
    31   18   31 1
    32   18   32 1
    33   19   33 1
    34   19   34 1
    35   19   35 1
@<TRIPOS>MOLECULE
ZINC52015781
   36    38     0     0     0
SMALL
USER_CHARGES

@<TRIPOS>ATOM
      1 C1         -0.0166    1.3734    0.0096 C.2       1 <0>         0.0339
      2 C2          1.1184    2.0711    0.0025 C.2       1 <0>        -0.1824
      3 S1          2.3473    0.7751   -0.0161 S.3       1 <0>         0.1624
      4 C3          1.2306   -0.6081   -0.0129 C.2       1 <0>         0.2450
      5 N1          0.0021   -0.0041    0.0020 N.pl3     1 <0>        -0.3818
      6 C4         -0.9149   -1.0591    0.0046 C.2       1 <0>        -0.6781
      7 C5         -0.2115   -2.2099   -0.0084 C.2       1 <0>         0.4443
      8 N2          1.0972   -1.9044   -0.0182 N.2       1 <0>        -0.4857
      9 N3         -0.7534   -3.5046   -0.0107 N.pl3     1 <0>        -0.8332
     10 S2         -2.6707   -0.9122    0.0224 S.o2      1 <0>         2.7252
     11 O1         -3.1739   -2.1226    0.5710 O.2       1 <0>        -0.9474
     12 O2         -2.9662    0.3594    0.5837 O.2       1 <0>        -0.9577
     13 N4         -3.1738   -0.8621   -1.5545 N.pl3     1 <0>        -1.1065
     14 C6         -2.9834   -2.0275   -2.4215 C.3       1 <0>         0.1649
     15 H1         -2.1506   -2.6246   -2.0499 H         1 <0>         0.0890
     16 C7         -4.2573   -2.8749   -2.4241 C.3       1 <0>        -0.1377
     17 C8         -4.0584   -4.0920   -3.3296 C.3       1 <0>        -0.1191
     18 C9         -3.7545   -3.6236   -4.7541 C.3       1 <0>        -0.1188
     19 C10        -2.4806   -2.7763   -4.7515 C.3       1 <0>        -0.1532
     20 C11        -2.6795   -1.5592   -3.8460 C.3       1 <0>         0.1025
     21 H2         -1.7719   -0.9555   -3.8442 H         1 <0>         0.0593
     22 O3         -3.7713   -0.7764   -4.3331 O.3       1 <0>        -0.5577
     23 H3         -0.9627    1.8940    0.0260 H         1 <0>         0.1874
     24 H4          1.2589    3.1419    0.0069 H         1 <0>         0.2247
     25 H5         -1.7156   -3.6277   -0.0024 H         1 <0>         0.4230
     26 H6         -0.1659   -4.2764   -0.0206 H         1 <0>         0.4153
     27 H7         -3.5946   -0.0611   -1.9041 H         1 <0>         0.4253
     28 H8         -4.4738   -3.2085   -1.4092 H         1 <0>         0.0785
     29 H9         -5.0901   -2.2778   -2.7957 H         1 <0>         0.0819
     30 H10        -3.2256   -4.6891   -2.9580 H         1 <0>         0.0630
     31 H11        -4.9660   -4.6957   -3.3314 H         1 <0>         0.0709
     32 H12        -3.6128   -4.4908   -5.3992 H         1 <0>         0.0645
     33 H13        -4.5873   -3.0266   -5.1257 H         1 <0>         0.0717
     34 H14        -1.6478   -3.3734   -4.3799 H         1 <0>         0.0739
     35 H15        -2.2641   -2.4426   -5.7664 H         1 <0>         0.0716
     36 H16        -3.6470   -0.4452   -5.2331 H         1 <0>         0.3812
@<TRIPOS>BOND
     1    1    5 1
     2    1    2 2
     3    1   23 1
     4    2    3 1
     5    2   24 1
     6    3    4 1
     7    4    8 2
     8    4    5 1
     9    5    6 1
    10    6    7 2
    11    6   10 1
    12    7    8 1
    13    7    9 1
    14    9   25 1
    15    9   26 1
    16   10   11 2
    17   10   12 2
    18   10   13 1
    19   13   14 1
    20   13   27 1
    21   14   15 1
    22   14   20 1
    23   14   16 1
    24   16   17 1
    25   16   28 1
    26   16   29 1
    27   17   18 1
    28   17   30 1
    29   17   31 1
    30   18   19 1
    31   18   32 1
    32   18   33 1
    33   19   20 1
    34   19   34 1
    35   19   35 1
    36   20   21 1
    37   20   22 1
    38   22   36 1
@<TRIPOS>MOLECULE
ZINC66846849
   39    41     0     0     0
SMALL
USER_CHARGES

@<TRIPOS>ATOM
      1 C1         -0.0167    1.3780    0.0096 C.ar      1 <0>        -0.1322
      2 C2          1.1706    2.0866    0.0021 C.ar      1 <0>        -0.0871
      3 C3          2.3773    1.4137   -0.0131 C.ar      1 <0>        -0.1547
      4 C4          2.3974    0.0291   -0.0207 C.ar      1 <0>         0.1092
      5 C5          1.2080   -0.6793   -0.0132 C.ar      1 <0>        -0.1207
      6 C6          0.0021   -0.0041    0.0020 C.ar      1 <0>        -0.0641
      7 C7          1.2281   -2.1862   -0.0220 C.3       1 <0>         0.1403
      8 H1          2.0687   -2.5355   -0.6215 H         1 <0>         0.0815
      9 C8          1.3725   -2.7039    1.4116 C.3       1 <0>         0.0345
     10 N1          1.3140   -4.1729    1.4048 N.3       1 <0>        -0.5274
     11 C9          0.0468   -4.6411    0.8250 C.3       1 <0>         0.0167
     12 C10        -0.0843   -4.1039   -0.6026 C.3       1 <0>         0.0659
     13 O1          0.0065   -2.6768   -0.5808 O.3       1 <0>        -0.3747
     14 C11         1.5059   -4.7136    2.7571 C.3       1 <0>         0.1241
     15 C12         1.6853   -6.2079    2.6798 C.ar      1 <0>         0.4412
     16 N2          0.6313   -7.0024    2.7446 N.ar      1 <0>        -0.6354
     17 C13         0.7856   -8.3227    2.6762 C.ar      1 <0>         0.6313
     18 N3          2.0014   -8.8416    2.5427 N.ar      1 <0>        -0.6565
     19 C14         3.0586   -8.0396    2.4779 C.ar      1 <0>         0.6314
     20 N4          2.8957   -6.7200    2.5419 N.ar      1 <0>        -0.6194
     21 N5          4.3234   -8.5737    2.3391 N.pl3     1 <0>        -0.8048
     22 N6         -0.3156   -9.1515    2.7445 N.pl3     1 <0>        -0.8062
     23 F1          3.5766   -0.6299   -0.0360 F         1 <0>        -0.1349
     24 H2         -0.9594    1.9048    0.0260 H         1 <0>         0.1315
     25 H3          1.1547    3.1665    0.0077 H         1 <0>         0.1339
     26 H4          3.3046    1.9675   -0.0193 H         1 <0>         0.1380
     27 H5         -0.9259   -0.5565    0.0083 H         1 <0>         0.1392
     28 H6          2.3292   -2.3796    1.8210 H         1 <0>         0.0924
     29 H7          0.5615   -2.3102    2.0242 H         1 <0>         0.0518
     30 H8          0.0358   -5.7309    0.8063 H         1 <0>         0.0902
     31 H9         -0.7855   -4.2783    1.4282 H         1 <0>         0.0514
     32 H10         0.7177   -4.5096   -1.2193 H         1 <0>         0.0596
     33 H11        -1.0481   -4.4010   -1.0162 H         1 <0>         0.1034
     34 H12         2.3917   -4.2641    3.2059 H         1 <0>         0.1080
     35 H13         0.6327   -4.4836    3.3676 H         1 <0>         0.0705
     36 H14         4.4410   -9.5352    2.2889 H         1 <0>         0.4170
     37 H15         5.0949   -7.9876    2.2919 H         1 <0>         0.4196
     38 H16        -1.2029   -8.7720    2.8423 H         1 <0>         0.4184
     39 H17        -0.2023  -10.1136    2.6946 H         1 <0>         0.4171
@<TRIPOS>BOND
     1    1    6 ar
     2    1    2 ar
     3    1   24 1
     4    2    3 ar
     5    2   25 1
     6    3    4 ar
     7    3   26 1
     8    4    5 ar
     9    4   23 1
    10    5    6 ar
    11    5    7 1
    12    6   27 1
    13    7    8 1
    14    7   13 1
    15    7    9 1
    16    9   10 1
    17    9   28 1
    18    9   29 1
    19   10   11 1
    20   10   14 1
    21   11   12 1
    22   11   30 1
    23   11   31 1
    24   12   13 1
    25   12   32 1
    26   12   33 1
    27   14   15 1
    28   14   34 1
    29   14   35 1
    30   15   20 ar
    31   15   16 ar
    32   16   17 ar
    33   17   18 ar
    34   17   22 1
    35   18   19 ar
    36   19   20 ar
    37   19   21 1
    38   21   36 1
    39   21   37 1
    40   22   38 1
    41   22   39 1
@<TRIPOS>MOLECULE
ZINC37730301
   35    36     0     0     0
SMALL
USER_CHARGES

@<TRIPOS>ATOM
      1 C1         -2.3085   -2.0985   -1.0989 C.3       1 <0>        -0.1329
      2 C2         -1.1332   -1.4783   -0.3882 C.2       1 <0>         0.2210
      3 C3         -0.1173   -0.7990   -0.9693 C.2       1 <0>        -0.8216
      4 C4          0.7613   -0.3922    0.0400 C.2       1 <0>         0.1374
      5 N1          0.2899   -0.8121    1.1860 N.2       1 <0>        -0.2861
      6 N2         -0.9082   -1.4959    0.9422 N.pl3     1 <0>        -0.4614
      7 H1         -1.4748   -1.9107    1.6114 H         1 <0>         0.4426
      8 S1          0.0664   -0.4834   -2.6931 S.o2      1 <0>         2.7244
      9 O1          1.2551    0.2810   -2.8415 O.2       1 <0>        -0.9550
     10 O2         -0.1289   -1.7248   -3.3564 O.2       1 <0>        -0.9614
     11 N3         -1.1874    0.4984   -3.1474 N.pl3     1 <0>        -1.1117
     12 C5         -1.2940    1.8522   -2.5978 C.3       1 <0>         0.1960
     13 H2         -0.7628    1.9013   -1.6473 H         1 <0>         0.0923
     14 C6         -0.6773    2.8510   -3.5790 C.3       1 <0>        -0.1676
     15 C7         -2.7458    2.1930   -2.3800 C.ar      1 <0>        -0.0408
     16 C8         -3.6934    1.8047   -3.3096 C.ar      1 <0>        -0.1694
     17 C9         -5.0263    2.1158   -3.1140 C.ar      1 <0>        -0.0666
     18 C10        -5.4159    2.8154   -1.9885 C.ar      1 <0>        -0.1986
     19 C11        -4.4669    3.2064   -1.0528 C.ar      1 <0>         0.2193
     20 C12        -3.1290    2.8877   -1.2499 C.ar      1 <0>        -0.1911
     21 N4         -4.8573    3.9140    0.0864 N.pl3     1 <0>        -0.8790
     22 H3         -3.1445   -1.3990   -1.0972 H         1 <0>         0.1009
     23 H4         -2.0306   -2.3299   -2.1271 H         1 <0>         0.1078
     24 H5         -2.6007   -3.0150   -0.5863 H         1 <0>         0.0911
     25 H6          1.6719    0.1709   -0.1021 H         1 <0>         0.2012
     26 H7         -1.8512    0.1771   -3.7775 H         1 <0>         0.4181
     27 H8         -1.2085    2.8019   -4.5295 H         1 <0>         0.0656
     28 H9         -0.7566    3.8583   -3.1700 H         1 <0>         0.0695
     29 H10         0.3728    2.6045   -3.7364 H         1 <0>         0.0766
     30 H11        -3.3915    1.2576   -4.1905 H         1 <0>         0.1197
     31 H12        -5.7637    1.8117   -3.8422 H         1 <0>         0.1230
     32 H13        -6.4571    3.0583   -1.8365 H         1 <0>         0.1191
     33 H14        -2.3891    3.1868   -0.5223 H         1 <0>         0.1200
     34 H15        -5.7921    4.1328    0.2248 H         1 <0>         0.3990
     35 H16        -4.1937    4.1866    0.7392 H         1 <0>         0.3985
@<TRIPOS>BOND
     1    1    2 1
     2    1   22 1
     3    1   23 1
     4    1   24 1
     5    2    6 1
     6    2    3 2
     7    3    4 1
     8    3    8 1
     9    4    5 2
    10    4   25 1
    11    5    6 1
    12    6    7 1
    13    8    9 2
    14    8   10 2
    15    8   11 1
    16   11   12 1
    17   11   26 1
    18   12   13 1
    19   12   14 1
    20   12   15 1
    21   14   27 1
    22   14   28 1
    23   14   29 1
    24   15   20 ar
    25   15   16 ar
    26   16   17 ar
    27   16   30 1
    28   17   18 ar
    29   17   31 1
    30   18   19 ar
    31   18   32 1
    32   19   20 ar
    33   19   21 1
    34   20   33 1
    35   21   34 1
    36   21   35 1
@<TRIPOS>MOLECULE
ZINC43396392
   37    38     0     0     0
SMALL
USER_CHARGES

@<TRIPOS>ATOM
      1 C1          2.3508   -0.4813   -1.4096 C.3       1 <0>        -0.1133
      2 C2          1.1217   -0.9391   -0.6675 C.ar      1 <0>         0.1812
      3 C3         -0.1265   -0.7268   -1.2252 C.ar      1 <0>        -0.1884
      4 C4         -1.2566   -1.1461   -0.5461 C.ar      1 <0>        -0.0310
      5 C5         -1.0923   -1.7762    0.6933 C.ar      1 <0>        -0.1888
      6 C6          0.2090   -1.9557    1.1939 C.ar      1 <0>         0.4658
      7 N1          1.2563   -1.5394    0.4990 N.ar      1 <0>        -0.4965
      8 N2          0.3966   -2.5752    2.4165 N.pl3     1 <0>        -0.6358
      9 C7          0.6553   -4.0195    2.4920 C.3       1 <0>         0.1597
     10 C8          1.9356   -4.2494    3.3011 C.3       1 <0>        -0.1148
     11 C9          1.8043   -3.5624    4.6624 C.3       1 <0>        -0.0993
     12 C10         1.6246   -2.0561    4.4602 C.3       1 <0>        -0.1245
     13 C11         0.3469   -1.8002    3.6637 C.3       1 <0>         0.1575
     14 C12         3.0484   -3.8151    5.4744 C.2       1 <0>         0.5197
     15 O1          3.9509   -4.4791    5.0103 O.2       1 <0>        -0.5432
     16 N3          3.1580   -3.3032    6.7163 N.am      1 <0>        -0.8581
     17 C13        -2.2610   -2.2418    1.4586 C.2       1 <0>         0.3857
     18 S1         -2.0387   -3.1547    2.8898 S.2       1 <0>        -0.5177
     19 N4         -3.5057   -1.9492    1.0325 N.pl3     1 <0>        -0.7716
     20 H1          2.6997   -1.2810   -2.0630 H         1 <0>         0.0863
     21 H2          2.1079    0.3968   -2.0080 H         1 <0>         0.0803
     22 H3          3.1339   -0.2286   -0.6947 H         1 <0>         0.0830
     23 H4         -0.2181   -0.2372   -2.1835 H         1 <0>         0.1446
     24 H5         -2.2413   -0.9908   -0.9617 H         1 <0>         0.1352
     25 H6         -0.1817   -4.5154    2.9835 H         1 <0>         0.0816
     26 H7          0.7814   -4.4212    1.4866 H         1 <0>         0.0593
     27 H8          2.0869   -5.3190    3.4466 H         1 <0>         0.0740
     28 H9          2.7861   -3.8311    2.7630 H         1 <0>         0.0706
     29 H10         0.9389   -3.9638    5.1897 H         1 <0>         0.0995
     30 H11         1.5546   -1.5646    5.4305 H         1 <0>         0.0704
     31 H12         2.4781   -1.6584    3.9111 H         1 <0>         0.0692
     32 H13         0.2695   -0.7381    3.4312 H         1 <0>         0.0578
     33 H14        -0.5158   -2.1112    4.2530 H         1 <0>         0.0819
     34 H15         2.4361   -2.7722    7.0875 H         1 <0>         0.4007
     35 H16         3.9588   -3.4659    7.2390 H         1 <0>         0.3995
     36 H17        -3.6316   -1.4320    0.2216 H         1 <0>         0.3971
     37 H18        -4.2755   -2.2559    1.5366 H         1 <0>         0.4223
@<TRIPOS>BOND
     1    1    2 1
     2    1   20 1
     3    1   21 1
     4    1   22 1
     5    2    7 ar
     6    2    3 ar
     7    3    4 ar
     8    3   23 1
     9    4    5 ar
    10    4   24 1
    11    5    6 ar
    12    5   17 1
    13    6    7 ar
    14    6    8 1
    15    8   13 1
    16    8    9 1
    17    9   10 1
    18    9   25 1
    19    9   26 1
    20   10   11 1
    21   10   27 1
    22   10   28 1
    23   11   12 1
    24   11   14 1
    25   11   29 1
    26   12   13 1
    27   12   30 1
    28   12   31 1
    29   13   32 1
    30   13   33 1
    31   14   15 2
    32   14   16 am
    33   16   34 1
    34   16   35 1
    35   17   18 2
    36   17   19 1
    37   19   36 1
    38   19   37 1
@<TRIPOS>MOLECULE
ZINC51068155
   35    36     0     0     0
SMALL
USER_CHARGES

@<TRIPOS>ATOM
      1 C1          0.0186    1.4608    0.0315 C.3       1 <0>         0.0930
      2 N1          0.0311   -0.0041    0.0190 N.pl3     1 <0>        -0.7281
      3 C2          0.6238   -0.6850   -1.0376 C.ar      1 <0>         0.4029
      4 C3          1.2096    0.0340   -2.0796 C.ar      1 <0>        -0.2058
      5 C4          1.7972   -0.6506   -3.1272 C.ar      1 <0>        -0.0378
      6 C5          1.7832   -2.0386   -3.1047 C.ar      1 <0>        -0.1619
      7 C6          1.1820   -2.6945   -2.0353 C.ar      1 <0>         0.1203
      8 N2          0.6309   -2.0056   -1.0416 N.ar      1 <0>        -0.5265
      9 C7          1.1608   -4.1751   -2.0013 C.2       1 <0>         0.5787
     10 O1          1.6671   -4.8110   -2.9048 O.2       1 <0>        -0.5021
     11 N3          0.5801   -4.8171   -0.9683 N.am      1 <0>        -0.6590
     12 C8          0.4741   -6.2113   -0.9823 C.ar      1 <0>         0.2063
     13 C9         -0.6412   -6.8301   -0.4323 C.ar      1 <0>        -0.1650
     14 C10        -0.7430   -8.2073   -0.4482 C.ar      1 <0>         0.0026
     15 C11         0.2641   -8.9702   -1.0104 C.ar      1 <0>        -0.6934
     16 C12         1.3759   -8.3573   -1.5588 C.ar      1 <0>         0.0026
     17 C13         1.4812   -6.9802   -1.5513 C.ar      1 <0>        -0.1452
     18 S1          0.1308  -10.7271   -1.0276 S.o2      1 <0>         2.7039
     19 O2          1.4551  -11.2339   -1.1207 O.2       1 <0>        -0.9634
     20 O3         -0.7464  -11.0782    0.0338 O.2       1 <0>        -0.9644
     21 N4         -0.6363  -11.1462   -2.4340 N.pl3     1 <0>        -1.2504
     22 H1          1.0431    1.8329    0.0200 H         1 <0>         0.0585
     23 H2         -0.5109    1.8271   -0.8479 H         1 <0>         0.0584
     24 H3         -0.4855    1.8122    0.9318 H         1 <0>         0.0827
     25 H4         -0.3744   -0.4988    0.7483 H         1 <0>         0.4079
     26 H5          1.2039    1.1139   -2.0682 H         1 <0>         0.1401
     27 H6          2.2571   -0.1169   -3.9459 H         1 <0>         0.1456
     28 H7          2.2334   -2.6026   -3.9082 H         1 <0>         0.1481
     29 H8          0.2357   -4.3121   -0.2152 H         1 <0>         0.4261
     30 H9         -1.4278   -6.2350    0.0075 H         1 <0>         0.1393
     31 H10        -1.6099   -8.6891   -0.0208 H         1 <0>         0.1486
     32 H11         2.1607   -8.9559   -1.9971 H         1 <0>         0.1480
     33 H12         2.3476   -6.5020   -1.9837 H         1 <0>         0.1513
     34 H13        -0.9150  -10.4580   -3.0582 H         1 <0>         0.4171
     35 H14        -0.8071  -12.0799   -2.6336 H         1 <0>         0.4210
@<TRIPOS>BOND
     1    1    2 1
     2    1   22 1
     3    1   23 1
     4    1   24 1
     5    2    3 1
     6    2   25 1
     7    3    8 ar
     8    3    4 ar
     9    4    5 ar
    10    4   26 1
    11    5    6 ar
    12    5   27 1
    13    6    7 ar
    14    6   28 1
    15    7    8 ar
    16    7    9 1
    17    9   10 2
    18    9   11 am
    19   11   12 1
    20   11   29 1
    21   12   17 ar
    22   12   13 ar
    23   13   14 ar
    24   13   30 1
    25   14   15 ar
    26   14   31 1
    27   15   16 ar
    28   15   18 1
    29   16   17 ar
    30   16   32 1
    31   17   33 1
    32   18   19 2
    33   18   20 2
    34   18   21 1
    35   21   34 1
    36   21   35 1
@<TRIPOS>MOLECULE
ZINC37660375
   38    39     0     0     0
SMALL
USER_CHARGES

@<TRIPOS>ATOM
      1 C1         -0.0184    1.5028    0.0103 C.3       1 <0>        -0.1059
      2 C2          0.0021   -0.0041    0.0020 C.2       1 <0>        -0.0541
      3 C3          0.0058   -0.6772   -1.1595 C.2       1 <0>        -0.1629
      4 S1          0.0313   -2.3841   -0.6436 S.3       1 <0>         0.1174
      5 C4          0.0362   -2.1388    1.1118 C.2       1 <0>         0.0760
      6 C5          0.0240   -0.7452    1.2493 C.2       1 <0>        -0.2391
      7 C6          0.0301   -0.2526    2.6450 C.2       1 <0>         0.5417
      8 O1          0.0156    0.9452    2.8793 O.2       1 <0>        -0.4812
      9 N1          0.0513   -1.1426    3.6485 N.2       1 <0>        -0.5534
     10 C7          0.0669   -2.4302    3.4419 C.2       1 <0>         0.4350
     11 N2          0.0519   -2.9519    2.1988 N.pl3     1 <0>        -0.5743
     12 H1          0.0641   -3.9145    2.0802 H         1 <0>         0.4245
     13 C8          0.0904   -3.3615    4.6265 C.3       1 <0>         0.1060
     14 N3          0.0911   -2.5754    5.8674 N.3       1 <0>        -0.6681
     15 C9          0.1138   -3.4520    7.0459 C.3       1 <0>         0.0593
     16 C10         0.1138   -2.5991    8.3161 C.3       1 <0>        -0.1057
     17 C11         0.1374   -3.5122    9.5436 C.3       1 <0>        -0.1401
     18 C12         0.1375   -2.6721   10.7947 C.2       1 <0>         0.5135
     19 O2          0.1203   -1.4622   10.7127 O.2       1 <0>        -0.5386
     20 N4          0.1566   -3.2653   12.0047 N.am      1 <0>        -0.8595
     21 C13        -0.0082   -0.1240   -2.5612 C.3       1 <0>        -0.0671
     22 H2          1.0042    1.8801    0.0026 H         1 <0>         0.0741
     23 H3         -0.5455    1.8639   -0.8728 H         1 <0>         0.0686
     24 H4         -0.5286    1.8543    0.9071 H         1 <0>         0.0843
     25 H5         -0.7913   -4.0020    4.6026 H         1 <0>         0.1135
     26 H6          0.9885   -3.9778    4.5863 H         1 <0>         0.0718
     27 H7          0.8639   -1.9269    5.8843 H         1 <0>         0.3613
     28 H8         -0.7677   -4.0932    7.0389 H         1 <0>         0.0768
     29 H9          1.0120   -4.0690    7.0226 H         1 <0>         0.0337
     30 H10         0.9953   -1.9580    8.3232 H         1 <0>         0.0723
     31 H11        -0.7844   -1.9821    8.3395 H         1 <0>         0.0838
     32 H12        -0.7440   -4.1533    9.5365 H         1 <0>         0.0962
     33 H13         1.0357   -4.1292    9.5202 H         1 <0>         0.0937
     34 H14         0.1703   -4.2330   12.0703 H         1 <0>         0.4013
     35 H15         0.1567   -2.7246   12.8100 H         1 <0>         0.4018
     36 H16         1.0160    0.0234   -2.9039 H         1 <0>         0.0814
     37 H17        -0.5157   -0.8253   -3.2236 H         1 <0>         0.0752
     38 H18        -0.5351    0.8302   -2.5699 H         1 <0>         0.0869
@<TRIPOS>BOND
     1    1    2 1
     2    1   22 1
     3    1   23 1
     4    1   24 1
     5    2    6 1
     6    2    3 2
     7    3    4 1
     8    3   21 1
     9    4    5 1
    10    5   11 1
    11    5    6 2
    12    6    7 1
    13    7    8 2
    14    7    9 1
    15    9   10 2
    16   10   11 1
    17   10   13 1
    18   11   12 1
    19   13   14 1
    20   13   25 1
    21   13   26 1
    22   14   15 1
    23   14   27 1
    24   15   16 1
    25   15   28 1
    26   15   29 1
    27   16   17 1
    28   16   30 1
    29   16   31 1
    30   17   18 1
    31   17   32 1
    32   17   33 1
    33   18   19 2
    34   18   20 am
    35   20   34 1
    36   20   35 1
    37   21   36 1
    38   21   37 1
    39   21   38 1
@<TRIPOS>MOLECULE
ZINC63913965
   31    33     0     0     0
SMALL
USER_CHARGES

@<TRIPOS>ATOM
      1 C1         -0.0169    1.3952    0.0097 C.ar      1 <0>        -0.0413
      2 C2          1.1631    2.1048    0.0023 C.ar      1 <0>        -0.1592
      3 C3          2.3808    1.4371   -0.0129 C.ar      1 <0>         0.1985
      4 C4          2.4118    0.0339   -0.0212 C.ar      1 <0>        -0.1778
      5 C5          1.2183   -0.6841   -0.0136 C.ar      1 <0>        -0.0139
      6 C6          0.0021   -0.0041    0.0020 C.ar      1 <0>        -0.0839
      7 C7         -1.2649   -0.7589    0.0105 C.2       1 <0>         0.2338
      8 N1         -1.2645   -2.0301    0.0090 N.2       1 <0>        -0.4766
      9 C8         -2.5399   -2.7744    0.0158 C.3       1 <0>         0.2113
     10 H1         -2.7654   -3.1774   -0.9716 H         1 <0>         0.1544
     11 S1         -3.7222   -1.4320    0.4732 S.3       1 <0>        -0.3049
     12 C9         -2.6029   -0.0339    0.0276 C.3       1 <0>        -0.0679
     13 C10        -2.5268   -3.8659    1.0547 C.2       1 <0>         0.2944
     14 N2         -3.5973   -4.3393    1.7159 N.pl3     1 <0>        -0.4662
     15 H2         -4.5172   -4.0477    1.6175 H         1 <0>         0.4430
     16 N3         -3.1193   -5.3406    2.5770 N.2       1 <0>        -0.3011
     17 C11        -1.8273   -5.4123    2.3922 C.2       1 <0>         0.2045
     18 N4         -1.4725   -4.5221    1.4665 N.2       1 <0>        -0.5033
     19 C12         3.7043   -0.6781   -0.0383 C.2       1 <0>         0.5636
     20 O1          4.7448   -0.0492   -0.0452 O.2       1 <0>        -0.5231
     21 N5          3.7313   -2.0256   -0.0461 N.am      1 <0>        -0.8504
     22 O2          3.5392    2.1405   -0.0202 O.3       1 <0>        -0.4754
     23 H3         -0.9604    1.9204    0.0260 H         1 <0>         0.1410
     24 H4          1.1417    3.1845    0.0079 H         1 <0>         0.1468
     25 H5          1.2354   -1.7640   -0.0203 H         1 <0>         0.1476
     26 H6         -2.6206    0.7465    0.7883 H         1 <0>         0.1359
     27 H7         -2.8476    0.3687   -0.9553 H         1 <0>         0.1323
     28 H8         -1.1566   -6.0864    2.9043 H         1 <0>         0.2248
     29 H9          2.9012   -2.5273   -0.0406 H         1 <0>         0.4026
     30 H10         4.5808   -2.4936   -0.0574 H         1 <0>         0.4076
     31 H11         3.8838    2.3400    0.8610 H         1 <0>         0.4027
@<TRIPOS>BOND
     1    1    6 ar
     2    1    2 ar
     3    1   23 1
     4    2    3 ar
     5    2   24 1
     6    3    4 ar
     7    3   22 1
     8    4    5 ar
     9    4   19 1
    10    5    6 ar
    11    5   25 1
    12    6    7 1
    13    7   12 1
    14    7    8 2
    15    8    9 1
    16    9   10 1
    17    9   11 1
    18    9   13 1
    19   11   12 1
    20   12   26 1
    21   12   27 1
    22   13   18 2
    23   13   14 1
    24   14   15 1
    25   14   16 1
    26   16   17 2
    27   17   18 1
    28   17   28 1
    29   19   20 2
    30   19   21 am
    31   21   29 1
    32   21   30 1
    33   22   31 1
@<TRIPOS>MOLECULE
ZINC25502874
   43    45     0     0     0
SMALL
USER_CHARGES
(2S,3R,4S,5S,6S)-2-(2-hydroxyethyl)-6-(1-naphthyloxy)tetrahydropyran-3,4,5-triol
@<TRIPOS>ATOM
      1 C1          2.3992    0.0381   -0.0205 C.ar      1 <0>        -0.1026
      2 C2          1.1940   -0.6616   -0.0128 C.ar      1 <0>        -0.1342
      3 C3          0.0021   -0.0041    0.0020 C.ar      1 <0>        -0.0766
      4 C4         -0.0170    1.3999    0.0097 C.ar      1 <0>        -0.0693
      5 C5          1.2081    2.1120    0.0019 C.ar      1 <0>        -0.0208
      6 C6          2.4192    1.3989   -0.0130 C.ar      1 <0>        -0.1209
      7 C7          1.1890    3.5171    0.0084 C.ar      1 <0>        -0.1492
      8 C8         -0.0021    4.1770    0.0223 C.ar      1 <0>        -0.0757
      9 C9         -1.2081    3.4821    0.0302 C.ar      1 <0>        -0.2189
     10 C10        -1.2313    2.1156    0.0193 C.ar      1 <0>         0.1478
     11 O1         -2.4161    1.4519    0.0214 O.3       1 <0>        -0.2835
     12 C11        -3.6044    2.2456    0.0313 C.3       1 <0>         0.2575
     13 H1         -3.5221    2.9755   -0.7875 H         1 <0>         0.1184
     14 C12        -4.8282    1.3342   -0.0922 C.3       1 <0>         0.1173
     15 H2         -5.7553    1.9174   -0.1942 H         1 <0>         0.0971
     16 C13        -4.8834    0.3996    1.1202 C.3       1 <0>         0.0964
     17 H3         -5.7449   -0.2821    1.0650 H         1 <0>         0.0662
     18 C14        -4.9124    1.2418    2.3994 C.3       1 <0>         0.0640
     19 H4         -5.8457    1.8182    2.4814 H         1 <0>         0.0672
     20 C15        -3.6853    2.1568    2.4266 C.3       1 <0>         0.0672
     21 H5         -2.7521    1.5755    2.3914 H         1 <0>         0.0863
     22 O2         -3.6786    2.9773    1.2566 O.3       1 <0>        -0.3775
     23 C16        -3.7378    3.0442    3.6718 C.3       1 <0>        -0.1130
     24 C17        -2.4531    3.8699    3.7641 C.3       1 <0>         0.0901
     25 O3         -2.5020    4.6988    4.9271 O.3       1 <0>        -0.6060
     26 O4         -4.8909    0.3800    3.5391 O.3       1 <0>        -0.5910
     27 O5         -3.7297   -0.4435    1.1290 O.3       1 <0>        -0.5617
     28 O6         -4.7277    0.5591   -1.2885 O.3       1 <0>        -0.5720
     29 H6          3.3311   -0.5076   -0.0323 H         1 <0>         0.1229
     30 H7          1.2058   -1.7416   -0.0184 H         1 <0>         0.1228
     31 H8         -0.9242   -0.5595    0.0075 H         1 <0>         0.1363
     32 H9          3.3607    1.9280   -0.0190 H         1 <0>         0.1280
     33 H10         2.1157    4.0716    0.0021 H         1 <0>         0.1261
     34 H11        -0.0112    5.2570    0.0270 H         1 <0>         0.1225
     35 H12        -2.1385    4.0303    0.0412 H         1 <0>         0.1316
     36 H13        -4.6036    3.7194    3.6046 H         1 <0>         0.0807
     37 H14        -3.8334    2.4134    4.5679 H         1 <0>         0.0844
     38 H15        -1.5873    3.1947    3.8313 H         1 <0>         0.0397
     39 H16        -2.3575    4.5007    2.8680 H         1 <0>         0.0514
     40 H17        -1.6608    5.3677    5.1615 H         1 <0>         0.4121
     41 H18        -4.9068    0.8077    4.5524 H         1 <0>         0.4144
     42 H19        -3.5962   -1.1847    1.9308 H         1 <0>         0.4083
     43 H20        -5.5208   -0.1577   -1.5477 H         1 <0>         0.4164
@<TRIPOS>BOND
     1    1    6 ar
     2    1    2 ar
     3    1   29 1
     4    2    3 ar
     5    2   30 1
     6    3    4 ar
     7    3   31 1
     8    4   10 ar
     9    4    5 ar
    10    5    6 ar
    11    5    7 ar
    12    6   32 1
    13    7    8 ar
    14    7   33 1
    15    8    9 ar
    16    8   34 1
    17    9   10 ar
    18    9   35 1
    19   10   11 1
    20   11   12 1
    21   12   13 1
    22   12   22 1
    23   12   14 1
    24   14   15 1
    25   14   16 1
    26   14   28 1
    27   16   17 1
    28   16   18 1
    29   16   27 1
    30   18   19 1
    31   18   20 1
    32   18   26 1
    33   20   21 1
    34   20   22 1
    35   20   23 1
    36   23   24 1
    37   23   36 1
    38   23   37 1
    39   24   25 1
    40   24   38 1
    41   24   39 1
    42   25   40 1
    43   26   41 1
    44   27   42 1
    45   28   43 1
@<TRIPOS>MOLECULE
ZINC37672723
   37    38     0     0     0
SMALL
USER_CHARGES

@<TRIPOS>ATOM
      1 C1          0.6708    1.6260    0.2450 C.3       1 <0>         0.0945
      2 N1          0.3157    0.2104    0.3719 N.pl3     1 <0>        -0.6873
      3 C2          0.3615   -0.4416    1.6830 C.3       1 <0>         0.1956
      4 C3         -0.9654   -0.2694    2.3763 C.ar      1 <0>        -0.1648
      5 C4         -1.2045    0.8600    3.1376 C.ar      1 <0>        -0.0565
      6 C5         -2.4194    1.0210    3.7743 C.ar      1 <0>        -0.2003
      7 C6         -3.4018    0.0469    3.6493 C.ar      1 <0>         0.2156
      8 C7         -3.1583   -1.0864    2.8837 C.ar      1 <0>        -0.2000
      9 C8         -1.9432   -1.2384    2.2451 C.ar      1 <0>        -0.0566
     10 N2         -4.6314    0.2063    4.2922 N.pl3     1 <0>        -0.8803
     11 C9         -0.0665   -0.5177   -0.7572 C.ar      1 <0>         0.2738
     12 C10        -1.4089   -0.6138   -1.1021 C.ar      1 <0>        -0.1427
     13 C11        -1.7832   -1.3339   -2.2191 C.ar      1 <0>        -0.0554
     14 C12        -0.8236   -1.9596   -2.9941 C.ar      1 <0>        -0.1451
     15 C13         0.5131   -1.8664   -2.6535 C.ar      1 <0>        -0.0150
     16 C14         0.8951   -1.1425   -1.5408 C.ar      1 <0>        -0.6864
     17 S1          2.5995   -1.0178   -1.1120 S.o2      1 <0>         2.7056
     18 O1          2.6890   -1.2889    0.2800 O.2       1 <0>        -0.9525
     19 O2          3.3182   -1.7676   -2.0819 O.2       1 <0>        -0.9727
     20 N3          3.0410    0.5653   -1.3152 N.pl3     1 <0>        -1.2479
     21 H1          1.7393    1.7165    0.0496 H         1 <0>         0.0516
     22 H2          0.1120    2.0683   -0.5798 H         1 <0>         0.0564
     23 H3          0.4253    2.1466    1.1706 H         1 <0>         0.0673
     24 H4          0.5686   -1.5039    1.5535 H         1 <0>         0.0805
     25 H5          1.1483    0.0110    2.2866 H         1 <0>         0.0821
     26 H6         -0.4401    1.6168    3.2347 H         1 <0>         0.1181
     27 H7         -2.6053    1.9031    4.3691 H         1 <0>         0.1171
     28 H8         -3.9198   -1.8458    2.7847 H         1 <0>         0.1168
     29 H9         -1.7548   -2.1171    1.6462 H         1 <0>         0.1160
     30 H10        -4.8002    0.9979    4.8268 H         1 <0>         0.3976
     31 H11        -5.3166   -0.4746    4.2042 H         1 <0>         0.3976
     32 H12        -2.1588   -0.1260   -0.4969 H         1 <0>         0.1328
     33 H13        -2.8266   -1.4090   -2.4878 H         1 <0>         0.1309
     34 H14        -1.1192   -2.5225   -3.8671 H         1 <0>         0.1337
     35 H15         1.2599   -2.3568   -3.2604 H         1 <0>         0.1448
     36 H16         2.4116    1.1997   -1.6924 H         1 <0>         0.4148
     37 H17         3.9290    0.8581   -1.0571 H         1 <0>         0.4202
@<TRIPOS>BOND
     1    1    2 1
     2    1   21 1
     3    1   22 1
     4    1   23 1
     5    2    3 1
     6    2   11 1
     7    3    4 1
     8    3   24 1
     9    3   25 1
    10    4    9 ar
    11    4    5 ar
    12    5    6 ar
    13    5   26 1
    14    6    7 ar
    15    6   27 1
    16    7    8 ar
    17    7   10 1
    18    8    9 ar
    19    8   28 1
    20    9   29 1
    21   10   30 1
    22   10   31 1
    23   11   16 ar
    24   11   12 ar
    25   12   13 ar
    26   12   32 1
    27   13   14 ar
    28   13   33 1
    29   14   15 ar
    30   14   34 1
    31   15   16 ar
    32   15   35 1
    33   16   17 1
    34   17   18 2
    35   17   19 2
    36   17   20 1
    37   20   36 1
    38   20   37 1
@<TRIPOS>MOLECULE
ZINC42479524
   39    39     0     0     0
SMALL
USER_CHARGES

@<TRIPOS>ATOM
      1 C1          0.9912   -1.1533   -0.0413 C.3       1 <0>        -0.1670
      2 C2          0.0056    0.0161    0.0017 C.3       1 <0>         0.1365
      3 C3          0.2960    0.9707   -1.1581 C.3       1 <0>        -0.1670
      4 N1         -1.3627   -0.4939   -0.1164 N.pl3     1 <0>        -0.6086
      5 C4         -1.7286   -1.3554   -1.2434 C.3       1 <0>         0.1151
      6 C5         -1.4889   -2.8185   -0.8657 C.3       1 <0>         0.0475
      7 O1         -2.3726   -3.1877    0.1948 O.3       1 <0>        -0.5631
      8 C6         -2.3162   -0.1595    0.8433 C.ar      1 <0>         0.2480
      9 C7         -1.9420    0.5635    1.9715 C.ar      1 <0>        -0.1780
     10 C8         -2.8823    0.8949    2.9217 C.ar      1 <0>        -0.0449
     11 C9         -4.2121    0.5050    2.7518 C.ar      1 <0>        -0.0717
     12 C10        -4.5849   -0.2199    1.6188 C.ar      1 <0>        -0.0911
     13 C11        -3.6413   -0.5442    0.6688 C.ar      1 <0>        -0.1336
     14 C12        -6.0192   -0.6429    1.4323 C.3       1 <0>         0.5197
     15 F1         -6.1443   -1.3510    0.2322 F         1 <0>        -0.1870
     16 F2         -6.4066   -1.4610    2.4990 F         1 <0>        -0.1624
     17 F3         -6.8383    0.4906    1.3925 F         1 <0>        -0.1637
     18 C13        -5.2238    0.8591    3.7708 C.2       1 <0>         0.4044
     19 N2         -6.4632    0.4950    3.6113 N.2       1 <0>        -0.4107
     20 O2         -7.4318    0.8340    4.5869 O.3       1 <0>        -0.4175
     21 N3         -4.8525    1.5779    4.8947 N.pl3     1 <0>        -0.8680
     22 H1          2.0113   -0.7695   -0.0243 H         1 <0>         0.0690
     23 H2          0.8304   -1.7961    0.8242 H         1 <0>         0.0613
     24 H3          0.8342   -1.7275   -0.9544 H         1 <0>         0.0617
     25 H4          0.1146    0.5486    0.9465 H         1 <0>         0.0944
     26 H5          0.1037    0.4631   -2.1034 H         1 <0>         0.0592
     27 H6         -0.3485    1.8461   -1.0783 H         1 <0>         0.0611
     28 H7          1.3395    1.2831   -1.1191 H         1 <0>         0.0693
     29 H8         -2.7816   -1.2103   -1.4848 H         1 <0>         0.0863
     30 H9         -1.1186   -1.0991   -2.1096 H         1 <0>         0.0937
     31 H10        -1.6762   -3.4528   -1.7322 H         1 <0>         0.0525
     32 H11        -0.4567   -2.9450   -0.5392 H         1 <0>         0.0553
     33 H12        -2.2759   -4.1046    0.4862 H         1 <0>         0.3791
     34 H13        -0.9132    0.8648    2.1024 H         1 <0>         0.1369
     35 H14        -2.5911    1.4555    3.7977 H         1 <0>         0.1336
     36 H15        -3.9300   -1.1016   -0.2101 H         1 <0>         0.1450
     37 H16        -8.3233    0.5207    4.3814 H         1 <0>         0.4004
     38 H17        -3.9289    1.8492    5.0136 H         1 <0>         0.3945
     39 H18        -5.5161    1.8101    5.5630 H         1 <0>         0.4097
@<TRIPOS>BOND
     1    1    2 1
     2    1   22 1
     3    1   23 1
     4    1   24 1
     5    2    3 1
     6    2    4 1
     7    2   25 1
     8    3   26 1
     9    3   27 1
    10    3   28 1
    11    4    5 1
    12    4    8 1
    13    5    6 1
    14    5   29 1
    15    5   30 1
    16    6    7 1
    17    6   31 1
    18    6   32 1
    19    7   33 1
    20    8   13 ar
    21    8    9 ar
    22    9   10 ar
    23    9   34 1
    24   10   11 ar
    25   10   35 1
    26   11   12 ar
    27   11   18 1
    28   12   13 ar
    29   12   14 1
    30   13   36 1
    31   14   15 1
    32   14   16 1
    33   14   17 1
    34   18   19 2
    35   18   21 1
    36   19   20 1
    37   20   37 1
    38   21   38 1
    39   21   39 1
@<TRIPOS>MOLECULE
ZINC49539272
   39    40     0     0     0
SMALL
USER_CHARGES

@<TRIPOS>ATOM
      1 C1         -0.0184    1.5028    0.0103 C.3       1 <0>        -0.0854
      2 C2          0.0021   -0.0041    0.0020 C.2       1 <0>         0.0803
      3 C3          0.0059   -0.7076   -1.1591 C.2       1 <0>        -0.2179
      4 S1          0.0324   -2.3789   -0.5312 S.3       1 <0>         0.1136
      5 C4          0.0357   -2.0088    1.1107 C.2       1 <0>         0.0593
      6 N1          0.0226   -0.6992    1.1217 N.2       1 <0>        -0.5159
      7 C5          0.0549   -2.9548    2.2837 C.3       1 <0>        -0.0677
      8 C6         -0.0083   -0.2146   -2.5831 C.3       1 <0>         0.2509
      9 H1          0.2429    0.8459   -2.6030 H         1 <0>         0.1049
     10 C7         -1.4020   -0.4199   -3.1801 C.3       1 <0>        -0.1720
     11 N2          0.9749   -0.9641   -3.3692 N.pl3     1 <0>        -1.1148
     12 S2          1.8150   -0.2099   -4.5807 S.o2      1 <0>         2.6954
     13 O1          2.6967   -1.1804   -5.1286 O.2       1 <0>        -0.9582
     14 O2          0.8567    0.4808   -5.3704 O.2       1 <0>        -0.9547
     15 C8          2.8262    1.0200   -3.8260 C.ar      1 <0>        -0.7335
     16 C9          2.3346    2.2994   -3.6417 C.ar      1 <0>         0.0241
     17 C10         3.1245    3.2657   -3.0505 C.ar      1 <0>        -0.2131
     18 C11         4.4140    2.9514   -2.6408 C.ar      1 <0>         0.2742
     19 C12         4.9046    1.6653   -2.8273 C.ar      1 <0>        -0.2038
     20 C13         4.1074    0.7022   -3.4141 C.ar      1 <0>         0.0293
     21 N3          5.2157    3.9265   -2.0429 N.pl3     1 <0>        -0.5868
     22 N4          6.4836    3.6157   -1.6405 N.3       1 <0>        -0.6055
     23 H2          1.0042    1.8801    0.0026 H         1 <0>         0.0753
     24 H3         -0.5455    1.8639   -0.8728 H         1 <0>         0.0761
     25 H4         -0.5286    1.8543    0.9071 H         1 <0>         0.0777
     26 H5          1.0871   -3.1685    2.5612 H         1 <0>         0.0906
     27 H6         -0.4610   -2.4973    3.1279 H         1 <0>         0.0933
     28 H7         -0.4475   -3.8827    2.0104 H         1 <0>         0.0872
     29 H8         -2.1335    0.1377   -2.5952 H         1 <0>         0.0733
     30 H9         -1.4122   -0.0634   -4.2100 H         1 <0>         0.0844
     31 H10        -1.6531   -1.4804   -3.1602 H         1 <0>         0.0664
     32 H11         1.1338   -1.9021   -3.1800 H         1 <0>         0.4183
     33 H12         1.3321    2.5432   -3.9609 H         1 <0>         0.1404
     34 H13         2.7401    4.2648   -2.9073 H         1 <0>         0.1314
     35 H14         5.9069    1.4177   -2.5102 H         1 <0>         0.1355
     36 H15         4.4867   -0.2991   -3.5554 H         1 <0>         0.1386
     37 H16         4.8721    4.8243   -1.9135 H         1 <0>         0.4075
     38 H17         6.9387    4.4165   -1.2287 H         1 <0>         0.3624
     39 H18         6.4790    2.8344   -1.0022 H         1 <0>         0.3390
@<TRIPOS>BOND
     1    1    2 1
     2    1   23 1
     3    1   24 1
     4    1   25 1
     5    2    6 1
     6    2    3 2
     7    3    4 1
     8    3    8 1
     9    4    5 1
    10    5    6 2
    11    5    7 1
    12    7   26 1
    13    7   27 1
    14    7   28 1
    15    8    9 1
    16    8   10 1
    17    8   11 1
    18   10   29 1
    19   10   30 1
    20   10   31 1
    21   11   12 1
    22   11   32 1
    23   12   13 2
    24   12   14 2
    25   12   15 1
    26   15   20 ar
    27   15   16 ar
    28   16   17 ar
    29   16   33 1
    30   17   18 ar
    31   17   34 1
    32   18   19 ar
    33   18   21 1
    34   19   20 ar
    35   19   35 1
    36   20   36 1
    37   21   22 1
    38   21   37 1
    39   22   38 1
    40   22   39 1
@<TRIPOS>MOLECULE
ZINC64643441
   43    44     0     0     0
SMALL
USER_CHARGES

@<TRIPOS>ATOM
      1 C1          0.0180   -1.1779   -0.0044 C.1       1 <0>        -0.1621
      2 C2          0.0021   -0.0041    0.0020 C.1       1 <0>        -0.2169
      3 C3         -0.0179    1.4678    0.0101 C.3       1 <0>         0.2303
      4 N1          1.3565    1.9749   -0.0003 N.am      1 <0>        -0.7302
      5 C4          1.5848    3.3031    0.0047 C.2       1 <0>         0.5201
      6 O1          0.6524    4.0786    0.0177 O.2       1 <0>        -0.5282
      7 C5          2.9986    3.8248   -0.0060 C.3       1 <0>        -0.1522
      8 C6          2.9778    5.3546    0.0024 C.3       1 <0>         0.1527
      9 N2          4.3523    5.8617   -0.0080 N.am      1 <0>        -0.7498
     10 C7          4.5805    7.1900   -0.0031 C.2       1 <0>         0.7031
     11 O2          3.6458    7.9674    0.0100 O.2       1 <0>        -0.5836
     12 N3          5.8449    7.6565   -0.0126 N.am      1 <0>        -0.7474
     13 C8          6.0931    9.1003   -0.0072 C.3       1 <0>         0.1428
     14 C9          7.6010    9.3587   -0.0203 C.3       1 <0>        -0.0516
     15 C10         7.8563   10.8439   -0.0147 C.2       1 <0>        -0.1727
     16 C11         8.0682   11.6216   -1.0881 C.2       1 <0>         0.0615
     17 N4          8.2626   12.9176   -0.6942 N.pl3     1 <0>        -0.5949
     18 H1          8.4342   13.6619   -1.2921 H         1 <0>         0.4170
     19 C12         8.1785   13.0077    0.6772 C.ar      1 <0>         0.0947
     20 C13         7.9139   11.7137    1.1626 C.ar      1 <0>        -0.1001
     21 C14         7.7702   11.5004    2.5346 C.ar      1 <0>        -0.0709
     22 C15         7.8838   12.5517    3.4002 C.ar      1 <0>        -0.1448
     23 C16         8.1406   13.8306    2.9262 C.ar      1 <0>        -0.0981
     24 C17         8.2952   14.0621    1.5766 C.ar      1 <0>        -0.1304
     25 H2          0.0322   -2.2278   -0.0102 H         1 <0>         0.2232
     26 H3         -0.5451    1.8289   -0.8729 H         1 <0>         0.0941
     27 H4         -0.5281    1.8193    0.9069 H         1 <0>         0.0941
     28 H5          2.1022    1.3546   -0.0107 H         1 <0>         0.4051
     29 H6          3.5258    3.4637    0.8770 H         1 <0>         0.1031
     30 H7          3.5088    3.4732   -0.9028 H         1 <0>         0.1029
     31 H8          2.4507    5.7157   -0.8807 H         1 <0>         0.0766
     32 H9          2.4677    5.7061    0.8992 H         1 <0>         0.0768
     33 H10         5.0980    5.2414   -0.0185 H         1 <0>         0.3951
     34 H11         6.5907    7.0362   -0.0231 H         1 <0>         0.3954
     35 H12         5.6397    9.5502   -0.8905 H         1 <0>         0.0664
     36 H13         5.6567    9.5406    0.8893 H         1 <0>         0.0679
     37 H14         8.0544    8.9088    0.8630 H         1 <0>         0.0765
     38 H15         8.0374    8.9184   -0.9168 H         1 <0>         0.0759
     39 H16         8.0833   11.2757   -2.1111 H         1 <0>         0.1706
     40 H17         7.5696   10.5080    2.9106 H         1 <0>         0.1206
     41 H18         7.7726   12.3862    4.4616 H         1 <0>         0.1225
     42 H19         8.2270   14.6515    3.6226 H         1 <0>         0.1253
     43 H20         8.4937   15.0611    1.2175 H         1 <0>         0.1197
@<TRIPOS>BOND
     1    1    2 3
     2    1   25 1
     3    2    3 1
     4    3    4 1
     5    3   26 1
     6    3   27 1
     7    4    5 am
     8    4   28 1
     9    5    6 2
    10    5    7 1
    11    7    8 1
    12    7   29 1
    13    7   30 1
    14    8    9 1
    15    8   31 1
    16    8   32 1
    17    9   10 am
    18    9   33 1
    19   10   11 2
    20   10   12 am
    21   12   13 1
    22   12   34 1
    23   13   14 1
    24   13   35 1
    25   13   36 1
    26   14   15 1
    27   14   37 1
    28   14   38 1
    29   15   20 1
    30   15   16 2
    31   16   17 1
    32   16   39 1
    33   17   18 1
    34   17   19 1
    35   19   24 ar
    36   19   20 ar
    37   20   21 ar
    38   21   22 ar
    39   21   40 1
    40   22   23 ar
    41   22   41 1
    42   23   24 ar
    43   23   42 1
    44   24   43 1
@<TRIPOS>MOLECULE
ZINC05547039
   37    38     0     0     0
SMALL
USER_CHARGES
3-(3,4-dihydroxyphenyl)-2-(4-fluorophenyl)sulfonylamino-propanoic acid
@<TRIPOS>ATOM
      1 C1         -0.3257    6.7311    5.7678 C.ar      1 <0>        -0.1742
      2 C2         -0.6526    5.5891    5.0615 C.ar      1 <0>         0.0268
      3 C3          0.3443    4.7364    4.6253 C.ar      1 <0>        -0.6664
      4 C4          1.6688    5.0222    4.8996 C.ar      1 <0>         0.0158
      5 C5          1.9984    6.1663    5.6012 C.ar      1 <0>        -0.1709
      6 C6          1.0009    7.0210    6.0386 C.ar      1 <0>         0.1496
      7 F1          1.3216    8.1373    6.7287 F         1 <0>        -0.1375
      8 S1         -0.0740    3.2805    3.7253 S.o2      1 <0>         2.6993
      9 O1         -1.4122    2.9563    4.0766 O.2       1 <0>        -0.9722
     10 O2          1.0023    2.3698    3.9031 O.2       1 <0>        -0.9615
     11 N1         -0.0910    3.6854    2.1196 N.pl3     1 <0>        -1.0854
     12 C7          1.1477    4.0981    1.4551 C.3       1 <0>         0.1106
     13 H1          2.0019    3.6755    1.9840 H         1 <0>         0.0917
     14 C8          1.1430    3.5955    0.0100 C.3       1 <0>        -0.0681
     15 C9          1.1693    2.0887    0.0021 C.ar      1 <0>        -0.0575
     16 C10        -0.0167    1.3782    0.0096 C.ar      1 <0>        -0.1101
     17 C11         0.0021   -0.0041    0.0020 C.ar      1 <0>        -0.1295
     18 C12         1.2113   -0.6805   -0.0132 C.ar      1 <0>         0.0659
     19 C13         2.4050    0.0347   -0.0208 C.ar      1 <0>         0.0829
     20 C14         2.3791    1.4201   -0.0131 C.ar      1 <0>        -0.1241
     21 O3          3.5943   -0.6246   -0.0362 O.3       1 <0>        -0.4877
     22 O4          1.2315   -2.0402   -0.0212 O.3       1 <0>        -0.4889
     23 C15         1.2454    5.6019    1.4636 C.2       1 <0>         0.4504
     24 O5          0.3701    6.2613    1.9726 O.co2     1 <0>        -0.6157
     25 H2         -1.1046    7.3973    6.1082 H         1 <0>         0.1396
     26 H3         -1.6872    5.3629    4.8498 H         1 <0>         0.1440
     27 H4          2.4465    4.3532    4.5619 H         1 <0>         0.1434
     28 H5          3.0335    6.3914    5.8119 H         1 <0>         0.1405
     29 H6         -0.9211    3.6493    1.6191 H         1 <0>         0.4132
     30 H7          2.0217    3.9769   -0.5102 H         1 <0>         0.0990
     31 H8          0.2421    3.9458   -0.4936 H         1 <0>         0.0783
     32 H9         -0.9599    1.9042    0.0169 H         1 <0>         0.1289
     33 H10        -0.9258   -0.5567    0.0076 H         1 <0>         0.1306
     34 H11         3.3042    1.9775   -0.0186 H         1 <0>         0.1362
     35 H12         3.9297   -0.8103   -0.9240 H         1 <0>         0.3822
     36 H13         1.2291   -2.4285   -0.9068 H         1 <0>         0.3802
     37 O6          2.3047    6.2088    0.9058 O.co2     1 <0>        -0.7595
@<TRIPOS>BOND
     1    1    6 ar
     2    1    2 ar
     3    1   25 1
     4    2    3 ar
     5    2   26 1
     6    3    4 ar
     7    3    8 1
     8    4    5 ar
     9    4   27 1
    10    5    6 ar
    11    5   28 1
    12    6    7 1
    13    8    9 2
    14    8   10 2
    15    8   11 1
    16   11   12 1
    17   11   29 1
    18   12   13 1
    19   12   14 1
    20   12   23 1
    21   14   15 1
    22   14   30 1
    23   14   31 1
    24   15   20 ar
    25   15   16 ar
    26   16   17 ar
    27   16   32 1
    28   17   18 ar
    29   17   33 1
    30   18   19 ar
    31   18   22 1
    32   19   20 ar
    33   19   21 1
    34   20   34 1
    35   21   35 1
    36   22   36 1
    37   23   24 2
    38   23   37 1
@<TRIPOS>MOLECULE
ZINC31958578
   39    40     0     0     0
SMALL
USER_CHARGES
3-[[2-[(2,5,6-trimethylthieno[2,3-d]pyrimidin-4-yl)amino]acetyl]amino]propanoic acid
@<TRIPOS>ATOM
      1 C1         -1.3453   -0.6597    0.5456 C.3       1 <0>        -0.1199
      2 C2         -0.0506    0.1091    0.4852 C.2       1 <0>        -0.0784
      3 C3          1.1156   -0.5057    0.7316 C.2       1 <0>        -0.1535
      4 S1          2.3205    0.7946    0.5415 S.3       1 <0>         0.0892
      5 C4          1.2251    2.1289    0.1362 C.ar      1 <0>         0.1575
      6 C5         -0.0512    1.5246    0.1599 C.ar      1 <0>        -0.2549
      7 C6         -1.1408    2.3905   -0.1315 C.ar      1 <0>         0.4980
      8 N1         -0.8985    3.6618   -0.4079 N.ar      1 <0>        -0.5924
      9 C7          0.3247    4.1601   -0.4117 C.ar      1 <0>         0.3858
     10 N2          1.3749    3.4082   -0.1442 N.ar      1 <0>        -0.5305
     11 C8          0.5249    5.6197   -0.7290 C.3       1 <0>        -0.0847
     12 N3         -2.4375    1.9088   -0.1314 N.pl3     1 <0>        -0.7032
     13 C9         -3.5621    2.8325   -0.2990 C.3       1 <0>         0.1046
     14 C10        -4.8559    2.0606   -0.2625 C.2       1 <0>         0.5029
     15 O1         -4.8401    0.8574   -0.1114 O.2       1 <0>        -0.5492
     16 N4         -6.0305    2.7075   -0.3979 N.am      1 <0>        -0.7280
     17 C11        -7.2883    1.9571   -0.3624 C.3       1 <0>         0.1377
     18 C12        -8.4628    2.9218   -0.5374 C.3       1 <0>        -0.1697
     19 C13        -9.7566    2.1499   -0.5009 C.2       1 <0>         0.4638
     20 O2         -9.7409    0.9512   -0.3504 O.co2     1 <0>        -0.6360
     21 O3        -10.9265    2.7941   -0.6357 O.co2     1 <0>        -0.7697
     22 C14         1.3514   -1.9515    1.0855 C.3       1 <0>        -0.0692
     23 H1         -1.1373   -1.7082    0.8052 H         1 <0>         0.0838
     24 H2         -1.8435   -0.6164   -0.4342 H         1 <0>         0.0775
     25 H3         -2.0001   -0.2157    1.3099 H         1 <0>         0.0795
     26 H4          1.5975    5.8602   -0.6872 H         1 <0>         0.0884
     27 H5         -0.0172    6.2325    0.0063 H         1 <0>         0.0899
     28 H6          0.1406    5.8317   -1.7376 H         1 <0>         0.0897
     29 H7         -2.6242    0.8321   -0.0055 H         1 <0>         0.4478
     30 H8         -3.5534    3.5723    0.5150 H         1 <0>         0.0975
     31 H9         -3.4709    3.3498   -1.2655 H         1 <0>         0.1003
     32 H10        -6.0448    3.7988   -0.5351 H         1 <0>         0.4208
     33 H11        -7.2970    1.2173   -1.1764 H         1 <0>         0.0704
     34 H12        -7.3795    1.4398    0.6041 H         1 <0>         0.0704
     35 H13        -8.4541    3.6616    0.2767 H         1 <0>         0.0719
     36 H14        -8.3716    3.4391   -1.5039 H         1 <0>         0.0720
     37 H15         2.4291   -2.1244    1.2223 H         1 <0>         0.0746
     38 H16         0.9771   -2.5933    0.2743 H         1 <0>         0.0827
     39 H17         0.8202   -2.1920    2.0182 H         1 <0>         0.0827
@<TRIPOS>BOND
     1    1    2 1
     2    1   23 1
     3    1   24 1
     4    1   25 1
     5    2    6 1
     6    2    3 2
     7    3    4 1
     8    3   22 1
     9    4    5 1
    10    5   10 ar
    11    5    6 ar
    12    6    7 ar
    13    7    8 ar
    14    7   12 1
    15    8    9 ar
    16    9   10 ar
    17    9   11 1
    18   11   26 1
    19   11   27 1
    20   11   28 1
    21   12   13 1
    22   12   29 1
    23   13   14 1
    24   13   30 1
    25   13   31 1
    26   14   15 2
    27   14   16 am
    28   16   17 1
    29   16   32 1
    30   17   18 1
    31   17   33 1
    32   17   34 1
    33   18   19 1
    34   18   35 1
    35   18   36 1
    36   19   20 2
    37   19   21 1
    38   22   37 1
    39   22   38 1
    40   22   39 1
@<TRIPOS>MOLECULE
ZINC02948995
   36    37     0     0     0
SMALL
USER_CHARGES

@<TRIPOS>ATOM
      1 C1          0.0371    1.3120   -0.7104 C.2       1 <0>        -0.2136
      2 C2          1.3627    1.7522   -0.5642 C.2       1 <0>        -0.1714
      3 C3          2.1345    0.6225   -0.3916 C.2       1 <0>         0.0072
      4 O1          1.3140   -0.4477   -0.4316 O.3       1 <0>        -0.1656
      5 C4          0.0519   -0.0357   -0.6233 C.2       1 <0>        -0.0286
      6 C5          3.5383    0.5912   -0.2054 C.2       1 <0>        -0.0634
      7 C6          4.1627   -0.5868    0.0605 C.2       1 <0>         0.1001
      8 C7          5.5996   -0.6060    0.3471 C.2       1 <0>         0.5416
      9 O2          6.1587   -1.6608    0.5852 O.2       1 <0>        -0.5175
     10 N1          6.3022    0.5441    0.3472 N.am      1 <0>        -0.7168
     11 C8          7.7388    0.5249    0.6338 C.3       1 <0>         0.1417
     12 C9          8.2905    1.9506    0.5708 C.3       1 <0>        -0.1960
     13 C10         9.7683    1.9308    0.8656 C.2       1 <0>         0.4957
     14 O3         10.3282    0.8744    1.1040 O.co2     1 <0>        -0.6915
     15 O4         10.4038    2.9713    0.8657 O.co2     1 <0>        -0.7011
     16 N2          3.4331   -1.7811    0.0604 N.am      1 <0>        -0.6536
     17 C11         3.7806   -2.7830   -0.7715 C.2       1 <0>         0.6131
     18 O5          4.6695   -2.6169   -1.5863 O.2       1 <0>        -0.4865
     19 C12         3.0878   -4.0730   -0.6951 C.2       1 <0>        -0.0705
     20 C13         3.4028   -5.1964   -1.4048 C.2       1 <0>        -0.1171
     21 C14         2.4859   -6.1871   -1.0201 C.2       1 <0>        -0.2232
     22 C15         1.6619   -5.6323   -0.1041 C.2       1 <0>        -0.0091
     23 O6          2.0311   -4.3599    0.0931 O.3       1 <0>        -0.1643
     24 H1         -0.8323    1.9351   -0.8598 H         1 <0>         0.1518
     25 H2          1.7097    2.7747   -0.5836 H         1 <0>         0.1566
     26 H3         -0.8132   -0.6782   -0.6962 H         1 <0>         0.2036
     27 H4          4.1126    1.5032   -0.2746 H         1 <0>         0.1676
     28 H5          5.8567    1.3846    0.1576 H         1 <0>         0.3933
     29 H6          7.9051    0.1147    1.6299 H         1 <0>         0.0717
     30 H7          8.2482   -0.0948   -0.1041 H         1 <0>         0.0727
     31 H8          8.1242    2.3608   -0.4253 H         1 <0>         0.0647
     32 H9          7.7811    2.5703    1.3087 H         1 <0>         0.0642
     33 H10         2.6774   -1.8879    0.6591 H         1 <0>         0.4146
     34 H11         4.2023   -5.3019   -2.1232 H         1 <0>         0.1619
     35 H12         2.4465   -7.2021   -1.3872 H         1 <0>         0.1575
     36 H13         0.8429   -6.1334    0.3904 H         1 <0>         0.2104
@<TRIPOS>BOND
     1    1    5 2
     2    1    2 1
     3    1   24 1
     4    2    3 2
     5    2   25 1
     6    3    4 1
     7    3    6 1
     8    4    5 1
     9    5   26 1
    10    6    7 2
    11    6   27 1
    12    7    8 1
    13    7   16 1
    14    8    9 2
    15    8   10 am
    16   10   11 1
    17   10   28 1
    18   11   12 1
    19   11   29 1
    20   11   30 1
    21   12   13 1
    22   12   31 1
    23   12   32 1
    24   13   14 2
    25   13   15 1
    26   16   17 am
    27   16   33 1
    28   17   18 2
    29   17   19 1
    30   19   23 1
    31   19   20 2
    32   20   21 1
    33   20   34 1
    34   21   22 2
    35   21   35 1
    36   22   23 1
    37   22   36 1
@<TRIPOS>MOLECULE
ZINC48676137
   36    37     0     0     0
SMALL
USER_CHARGES

@<TRIPOS>ATOM
      1 C1         -0.0178    1.4608    0.0101 C.3       1 <0>         0.0989
      2 N1          0.0021   -0.0041    0.0020 N.pl3     1 <0>        -0.3713
      3 C2          0.0078   -0.7920   -1.0936 C.2       1 <0>         0.1704
      4 C3          0.0272   -2.0789   -0.6760 C.2       1 <0>        -0.7665
      5 C4          0.0335   -2.0775    0.7227 C.2       1 <0>         0.1356
      6 N2          0.0246   -0.8342    1.1302 N.2       1 <0>        -0.3030
      7 S1          0.0410   -3.5046   -1.7112 S.o2      1 <0>         2.6923
      8 O1         -0.4917   -4.5722   -0.9393 O.2       1 <0>        -1.0043
      9 O2         -0.5215   -3.1090   -2.9547 O.2       1 <0>        -1.0101
     10 N3          1.6266   -3.8796   -2.0070 N.2       1 <0>        -1.0441
     11 C5          1.9250   -4.9028   -2.7542 C.2       1 <0>         0.5183
     12 O3          0.9398   -5.6597   -3.2892 O.3       1 <0>        -0.7068
     13 C6          3.3388   -5.2372   -3.0179 C.ar      1 <0>        -0.0517
     14 C7          3.6634   -6.3300   -3.8234 C.ar      1 <0>        -0.0512
     15 C8          4.9849   -6.6370   -4.0664 C.ar      1 <0>        -0.1520
     16 C9          5.9956   -5.8662   -3.5146 C.ar      1 <0>        -0.0930
     17 C10         5.6909   -4.7831   -2.7161 C.ar      1 <0>        -0.1607
     18 C11         4.3639   -4.4549   -2.4652 C.ar      1 <0>        -0.0711
     19 S2          3.9711   -3.0680   -1.4518 S.3       1 <0>         0.1399
     20 C12         5.5889   -2.3928   -0.9858 C.3       1 <0>        -0.2492
     21 C13         5.3945   -1.1851   -0.1055 C.2       1 <0>         0.5394
     22 O4          4.2748   -0.8163    0.1794 O.2       1 <0>        -0.5175
     23 N4          6.4649   -0.5149    0.3651 N.am      1 <0>        -0.8599
     24 H1          1.0048    1.8381    0.0023 H         1 <0>         0.0764
     25 H2         -0.5450    1.8219   -0.8730 H         1 <0>         0.0867
     26 H3         -0.5280    1.8123    0.9069 H         1 <0>         0.0874
     27 H4         -0.0017   -0.4556   -2.1198 H         1 <0>         0.1852
     28 H5          0.0482   -2.9516    1.3568 H         1 <0>         0.1919
     29 H6          2.8797   -6.9346   -4.2554 H         1 <0>         0.1365
     30 H7          5.2340   -7.4830   -4.6899 H         1 <0>         0.1200
     31 H8          7.0282   -6.1149   -3.7106 H         1 <0>         0.1167
     32 H9          6.4841   -4.1873   -2.2892 H         1 <0>         0.1168
     33 H10         6.1562   -3.1496   -0.4441 H         1 <0>         0.1015
     34 H11         6.1344   -2.1036   -1.8841 H         1 <0>         0.1010
     35 H12         7.3605   -0.8099    0.1373 H         1 <0>         0.3987
     36 H13         6.3398    0.2624    0.9317 H         1 <0>         0.3992
@<TRIPOS>BOND
     1    1    2 1
     2    1   24 1
     3    1   25 1
     4    1   26 1
     5    2    6 1
     6    2    3 1
     7    3    4 2
     8    3   27 1
     9    4    5 1
    10    4    7 1
    11    5    6 2
    12    5   28 1
    13    7    8 2
    14    7    9 2
    15    7   10 1
    16   10   11 2
    17   11   12 1
    18   11   13 1
    19   13   18 ar
    20   13   14 ar
    21   14   15 ar
    22   14   29 1
    23   15   16 ar
    24   15   30 1
    25   16   17 ar
    26   16   31 1
    27   17   18 ar
    28   17   32 1
    29   18   19 1
    30   19   20 1
    31   20   21 1
    32   20   33 1
    33   20   34 1
    34   21   22 2
    35   21   23 am
    36   23   35 1
    37   23   36 1
@<TRIPOS>MOLECULE
ZINC66003178
   38    39     0     0     0
SMALL
USER_CHARGES

@<TRIPOS>ATOM
      1 C1         -0.1571    1.3497    0.1298 C.3       1 <0>        -0.1449
      2 C2         -0.0661   -0.1743    0.2295 C.3       1 <0>        -0.0273
      3 C3          0.7842   -0.5503    1.4155 C.2       1 <0>         0.0573
      4 N1          0.4070   -0.7693    2.6503 N.2       1 <0>        -0.4567
      5 C4          1.2769   -1.0932    3.5861 C.2       1 <0>         0.1199
      6 C5          2.5780   -1.1884    3.2103 C.2       1 <0>        -0.2440
      7 S1          2.4481   -0.7976    1.4728 S.3       1 <0>         0.0345
      8 C6          0.8471   -1.3456    5.0083 C.3       1 <0>        -0.0194
      9 C7          0.0838   -0.1520    5.5218 C.2       1 <0>         0.4917
     10 O1         -0.4021   -0.1524    6.7805 O.3       1 <0>        -0.7333
     11 N2         -0.1050    0.8706    4.7577 N.2       1 <0>        -1.0333
     12 S2         -0.9437    2.1823    5.3220 S.o2      1 <0>         2.6688
     13 O2         -2.2801    1.7489    5.5348 O.2       1 <0>        -1.0141
     14 O3         -0.1546    2.7548    6.3558 O.2       1 <0>        -1.0140
     15 C8         -0.9997    3.3654    4.0174 C.2       1 <0>        -0.6986
     16 C9         -0.0581    4.3709    3.7769 C.2       1 <0>        -0.0449
     17 C10        -0.4835    5.0667    2.6653 C.2       1 <0>        -0.0785
     18 N3         -1.6606    4.4922    2.2418 N.pl3     1 <0>        -0.4078
     19 C11        -1.9594    3.4586    3.0661 C.2       1 <0>         0.1353
     20 C12        -2.4548    4.9223    1.0884 C.3       1 <0>         0.0633
     21 C13         0.1942    6.2111    2.0470 C.2       1 <0>         0.6024
     22 O4         -0.2264    6.6767    1.0043 O.2       1 <0>        -0.5589
     23 N4          1.2828    6.7471    2.6337 N.am      1 <0>        -0.8438
     24 H1          0.8426    1.7662    0.0067 H         1 <0>         0.0542
     25 H2         -0.7722    1.6217   -0.7280 H         1 <0>         0.0594
     26 H3         -0.6067    1.7472    1.0398 H         1 <0>         0.0664
     27 H4         -1.0659   -0.5907    0.3526 H         1 <0>         0.0922
     28 H5          0.3834   -0.5717   -0.6805 H         1 <0>         0.0807
     29 H6          3.4495   -1.4357    3.7983 H         1 <0>         0.1884
     30 H7          0.2082   -2.2280    5.0436 H         1 <0>         0.0951
     31 H8          1.7271   -1.5092    5.6303 H         1 <0>         0.0947
     32 H9          0.8340    4.5659    4.3535 H         1 <0>         0.1528
     33 H10        -2.8232    2.8162    2.9802 H         1 <0>         0.1842
     34 H11        -2.1691    4.3394    0.2128 H         1 <0>         0.0781
     35 H12        -3.5132    4.7679    1.2981 H         1 <0>         0.0834
     36 H13        -2.2730    5.9797    0.8961 H         1 <0>         0.1029
     37 H14         1.6615    6.3320    3.4244 H         1 <0>         0.4069
     38 H15         1.6876    7.5479    2.2652 H         1 <0>         0.4069
@<TRIPOS>BOND
     1    1    2 1
     2    1   24 1
     3    1   25 1
     4    1   26 1
     5    2    3 1
     6    2   27 1
     7    2   28 1
     8    3    7 1
     9    3    4 2
    10    4    5 1
    11    5    6 2
    12    5    8 1
    13    6    7 1
    14    6   29 1
    15    8    9 1
    16    8   30 1
    17    8   31 1
    18    9   10 1
    19    9   11 2
    20   11   12 1
    21   12   13 2
    22   12   14 2
    23   12   15 1
    24   15   19 2
    25   15   16 1
    26   16   17 2
    27   16   32 1
    28   17   18 1
    29   17   21 1
    30   18   19 1
    31   18   20 1
    32   19   33 1
    33   20   34 1
    34   20   35 1
    35   20   36 1
    36   21   22 2
    37   21   23 am
    38   23   37 1
    39   23   38 1
@<TRIPOS>MOLECULE
ZINC16248578
   31    31     0     0     0
SMALL
USER_CHARGES
(E)-2-cyano-N-(2-furylmethyl)-3-methylsulfanyl-3-ureido-prop-2-enamide
@<TRIPOS>ATOM
      1 C1          0.3780    3.7932   -0.3170 C.3       1 <0>        -0.1641
      2 S1         -1.3592    3.2866   -0.2774 S.3       1 <0>         0.0058
      3 C2         -1.1737    1.6121    0.0269 C.2       1 <0>         0.2474
      4 C3         -2.2981    0.8125    0.2389 C.2       1 <0>        -0.1280
      5 C4         -3.6089    1.3825    0.1515 C.1       1 <0>         0.2449
      6 N1         -4.6487    1.8346    0.0821 N.1       1 <0>        -0.3870
      7 C5         -2.1375   -0.6071    0.5502 C.2       1 <0>         0.5883
      8 O1         -1.0237   -1.0744    0.7041 O.2       1 <0>        -0.5240
      9 N2         -3.2223   -1.3983    0.6669 N.am      1 <0>        -0.7238
     10 C6         -3.0614   -2.8207    0.9788 C.3       1 <0>         0.2077
     11 C7         -4.4168   -3.4751    1.0531 C.2       1 <0>        -0.0458
     12 C8         -5.0727   -4.0447    0.0260 C.2       1 <0>        -0.1791
     13 C9         -6.2971   -4.5295    0.5404 C.2       1 <0>        -0.2187
     14 C10        -6.3163   -4.2272    1.8510 C.2       1 <0>        -0.0245
     15 O2         -5.1722   -3.5938    2.1571 O.3       1 <0>        -0.1705
     16 N3          0.0804    1.0560    0.0623 N.am      1 <0>        -0.6890
     17 C11         0.7280    0.9284    1.2374 C.2       1 <0>         0.7284
     18 O3          0.2348    1.3748    2.2547 O.2       1 <0>        -0.5719
     19 N4          1.9224    0.3058    1.2844 N.am      1 <0>        -0.8511
     20 H1          0.8661    3.4901    0.6093 H         1 <0>         0.0956
     21 H2          0.8758    3.3181   -1.1623 H         1 <0>         0.0942
     22 H3          0.4383    4.8765   -0.4218 H         1 <0>         0.1180
     23 H4         -4.1096   -1.0261    0.5443 H         1 <0>         0.4036
     24 H5         -2.4692   -3.2990    0.1987 H         1 <0>         0.1038
     25 H6         -2.5534   -2.9272    1.9373 H         1 <0>         0.0894
     26 H7         -4.7300   -4.1171   -0.9956 H         1 <0>         0.1519
     27 H8         -7.0692   -5.0436   -0.0129 H         1 <0>         0.1523
     28 H9         -7.1140   -4.4593    2.5411 H         1 <0>         0.2065
     29 H10         0.5023    0.7583   -0.7588 H         1 <0>         0.4185
     30 H11         2.3160   -0.0504    0.4726 H         1 <0>         0.4003
     31 H12         2.3885    0.2140    2.1301 H         1 <0>         0.4207
@<TRIPOS>BOND
     1    1    2 1
     2    1   20 1
     3    1   21 1
     4    1   22 1
     5    2    3 1
     6    3    4 2
     7    3   16 1
     8    4    5 1
     9    4    7 1
    10    5    6 3
    11    7    8 2
    12    7    9 am
    13    9   10 1
    14    9   23 1
    15   10   11 1
    16   10   24 1
    17   10   25 1
    18   11   15 1
    19   11   12 2
    20   12   13 1
    21   12   26 1
    22   13   14 2
    23   13   27 1
    24   14   15 1
    25   14   28 1
    26   16   17 am
    27   16   29 1
    28   17   18 2
    29   17   19 am
    30   19   30 1
    31   19   31 1
@<TRIPOS>MOLECULE
ZINC38092146
   37    38     0     0     0
SMALL
USER_CHARGES

@<TRIPOS>ATOM
      1 C1         -0.0169    1.3977    0.0097 C.2       1 <0>         0.0400
      2 C2          1.1638    2.0807    0.0021 C.2       1 <0>        -0.2387
      3 C3          2.3727    1.3642   -0.0133 C.2       1 <0>         0.5232
      4 O1          3.4365    1.9628   -0.0198 O.2       1 <0>        -0.5281
      5 N1          2.3580    0.0177   -0.0204 N.am      1 <0>        -0.6016
      6 H1          3.1959   -0.4709   -0.0307 H         1 <0>         0.4241
      7 C4          1.1838   -0.6637   -0.0128 C.2       1 <0>         0.2664
      8 C5          0.0021   -0.0041    0.0020 C.2       1 <0>        -0.7851
      9 S1         -1.5113   -0.9064    0.0110 S.o2      1 <0>         2.7108
     10 O2         -1.1692   -2.2712    0.2103 O.2       1 <0>        -0.9571
     11 O3         -2.3953   -0.2083    0.8773 O.2       1 <0>        -0.9499
     12 N2         -2.1555   -0.7973   -1.5106 N.pl3     1 <0>        -1.1104
     13 C6         -1.4569   -1.4030   -2.6470 C.3       1 <0>         0.1458
     14 C7         -0.5896   -0.3465   -3.3344 C.3       1 <0>        -0.1415
     15 C8          0.1400   -0.9791   -4.5212 C.3       1 <0>        -0.0997
     16 C9         -0.8847   -1.5249   -5.5177 C.3       1 <0>        -0.1109
     17 C10        -1.7520   -2.5813   -4.8303 C.3       1 <0>        -0.1104
     18 C11        -2.4816   -1.9488   -3.6435 C.3       1 <0>        -0.1204
     19 C12        -0.1661   -2.1479   -6.6866 C.2       1 <0>         0.5196
     20 O4          1.0462   -2.1548   -6.7195 O.2       1 <0>        -0.5407
     21 N3         -0.8707   -2.6976   -7.6956 N.am      1 <0>        -0.8564
     22 H2         -0.9560    1.9309    0.0260 H         1 <0>         0.1478
     23 H3          1.1695    3.1606    0.0075 H         1 <0>         0.1582
     24 H4          1.1928   -1.7437   -0.0191 H         1 <0>         0.1884
     25 H5         -2.9954   -0.3323   -1.6495 H         1 <0>         0.4214
     26 H6         -0.8250   -2.2175   -2.2928 H         1 <0>         0.0955
     27 H7         -1.2215    0.4680   -3.6886 H         1 <0>         0.0767
     28 H8          0.1404    0.0423   -2.6245 H         1 <0>         0.0698
     29 H9          0.7579   -0.2265   -5.0109 H         1 <0>         0.0763
     30 H10         0.7719   -1.7936   -4.1670 H         1 <0>         0.0737
     31 H11        -1.5166   -0.7104   -5.8719 H         1 <0>         0.1020
     32 H12        -2.4820   -2.9702   -5.5402 H         1 <0>         0.0754
     33 H13        -1.1202   -3.3958   -4.4761 H         1 <0>         0.0750
     34 H14        -3.0995   -2.7014   -3.1538 H         1 <0>         0.0807
     35 H15        -3.1135   -1.1343   -3.9977 H         1 <0>         0.0759
     36 H16        -1.8403   -2.6921   -7.6693 H         1 <0>         0.4016
     37 H17        -0.4081   -3.0986   -8.4480 H         1 <0>         0.4024
@<TRIPOS>BOND
     1    1    8 1
     2    1    2 2
     3    1   22 1
     4    2    3 1
     5    2   23 1
     6    3    4 2
     7    3    5 am
     8    5    6 1
     9    5    7 1
    10    7    8 2
    11    7   24 1
    12    8    9 1
    13    9   10 2
    14    9   11 2
    15    9   12 1
    16   12   13 1
    17   12   25 1
    18   13   18 1
    19   13   14 1
    20   13   26 1
    21   14   15 1
    22   14   27 1
    23   14   28 1
    24   15   16 1
    25   15   29 1
    26   15   30 1
    27   16   17 1
    28   16   19 1
    29   16   31 1
    30   17   18 1
    31   17   32 1
    32   17   33 1
    33   18   34 1
    34   18   35 1
    35   19   20 2
    36   19   21 am
    37   21   36 1
    38   21   37 1
@<TRIPOS>MOLECULE
ZINC47691542
   34    35     0     0     0
SMALL
USER_CHARGES

@<TRIPOS>ATOM
      1 C1         -0.0184    1.5028    0.0103 C.3       1 <0>        -0.0819
      2 C2          0.0021   -0.0041    0.0020 C.2       1 <0>         0.0593
      3 C3          0.0059   -0.7076   -1.1591 C.2       1 <0>        -0.2241
      4 S1          0.0324   -2.3789   -0.5312 S.3       1 <0>         0.1303
      5 C4          0.0357   -2.0088    1.1107 C.2       1 <0>         0.0233
      6 N1          0.0226   -0.6992    1.1217 N.2       1 <0>        -0.4947
      7 C5          0.0549   -2.9548    2.2837 C.3       1 <0>         0.2339
      8 N2         -1.3200   -3.2810    2.6705 N.am      1 <0>        -0.7384
      9 C6         -1.5493   -4.1163    3.7030 C.2       1 <0>         0.7135
     10 O1         -0.6151   -4.5991    4.3136 O.2       1 <0>        -0.5715
     11 N3         -2.8142   -4.4164    4.0589 N.am      1 <0>        -0.6552
     12 C7         -3.0539   -5.2893    5.1379 C.2       1 <0>         0.0267
     13 C8         -2.0776   -5.9104    5.9302 C.2       1 <0>         0.0526
     14 N4         -2.6823   -6.6439    6.8291 N.2       1 <0>        -0.2541
     15 N5         -4.0650   -6.5181    6.6439 N.pl3     1 <0>        -0.3671
     16 C9         -4.2709   -5.6742    5.5995 C.2       1 <0>         0.0126
     17 C10        -5.1050   -7.1756    7.4391 C.3       1 <0>         0.1234
     18 C11        -4.8721   -8.6645    7.4381 C.2       1 <0>         0.5002
     19 O2         -3.9301   -9.1305    6.8327 O.2       1 <0>        -0.5083
     20 N6         -5.7105   -9.4782    8.1100 N.am      1 <0>        -0.8543
     21 H1          1.0042    1.8801    0.0026 H         1 <0>         0.0767
     22 H2         -0.5455    1.8639   -0.8728 H         1 <0>         0.0761
     23 H3         -0.5286    1.8543    0.9071 H         1 <0>         0.0758
     24 H4         -0.0043   -0.3543   -2.1797 H         1 <0>         0.1988
     25 H5          0.5804   -3.8682    2.0052 H         1 <0>         0.0986
     26 H6          0.5661   -2.4828    3.1227 H         1 <0>         0.1035
     27 H7         -2.0652   -2.8958    2.1835 H         1 <0>         0.4001
     28 H8         -3.5594   -4.0312    3.5719 H         1 <0>         0.4067
     29 H9         -1.0090   -5.8020    5.8174 H         1 <0>         0.2081
     30 H10        -5.2287   -5.3673    5.2062 H         1 <0>         0.1771
     31 H11        -5.0695   -6.8030    8.4629 H         1 <0>         0.1164
     32 H12        -6.0826   -6.9605    7.0078 H         1 <0>         0.1262
     33 H13        -6.4638   -9.1055    8.5942 H         1 <0>         0.4025
     34 H14        -5.5606  -10.4366    8.1093 H         1 <0>         0.4073
@<TRIPOS>BOND
     1    1    2 1
     2    1   21 1
     3    1   22 1
     4    1   23 1
     5    2    6 1
     6    2    3 2
     7    3    4 1
     8    3   24 1
     9    4    5 1
    10    5    6 2
    11    5    7 1
    12    7    8 1
    13    7   25 1
    14    7   26 1
    15    8    9 am
    16    8   27 1
    17    9   10 2
    18    9   11 am
    19   11   12 1
    20   11   28 1
    21   12   16 2
    22   12   13 1
    23   13   14 2
    24   13   29 1
    25   14   15 1
    26   15   16 1
    27   15   17 1
    28   16   30 1
    29   17   18 1
    30   17   31 1
    31   17   32 1
    32   18   19 2
    33   18   20 am
    34   20   33 1
    35   20   34 1
@<TRIPOS>MOLECULE
ZINC50265057
   38    38     0     0     0
SMALL
USER_CHARGES

@<TRIPOS>ATOM
      1 C1         -1.1526    0.8855   -0.7870 C.3       1 <0>        -0.1078
      2 C2         -0.5412   -0.4641   -0.5118 C.2       1 <0>         0.1656
      3 C3          0.0539   -1.3035   -1.4592 C.2       1 <0>        -0.8216
      4 C4          0.4799   -2.4172   -0.8196 C.2       1 <0>         0.2122
      5 N1          0.1655   -2.2872    0.4863 N.pl3     1 <0>        -0.3584
      6 N2         -0.4702   -1.0505    0.6557 N.2       1 <0>        -0.2893
      7 C5          0.4446   -3.2645    1.5414 C.3       1 <0>         0.0889
      8 C6          1.1795   -3.5925   -1.4523 C.3       1 <0>        -0.1366
      9 S1          0.2188   -0.9700   -3.1815 S.o2      1 <0>         2.7288
     10 O1         -0.0032   -2.2006   -3.8565 O.2       1 <0>        -0.9603
     11 O2         -0.5527    0.1937   -3.4455 O.2       1 <0>        -0.9455
     12 N3          1.8005   -0.5606   -3.4517 N.pl3     1 <0>        -1.1135
     13 C7          2.3410    0.6819   -2.8947 C.3       1 <0>         0.2480
     14 C8          1.4633    1.8585   -3.3262 C.3       1 <0>        -0.1700
     15 C9          2.3576    0.5913   -1.3674 C.3       1 <0>        -0.1789
     16 C10         3.7450    0.8904   -3.4009 C.2       1 <0>         0.3686
     17 N4          4.0585    1.9904   -4.0013 N.2       1 <0>        -0.4020
     18 O3          5.3777    2.1863   -4.4769 O.3       1 <0>        -0.4254
     19 N5          4.6940   -0.0918   -3.2233 N.pl3     1 <0>        -0.8682
     20 H1         -0.3711    1.6453   -0.7873 H         1 <0>         0.0891
     21 H2         -1.6446    0.8700   -1.7596 H         1 <0>         0.1119
     22 H3         -1.8845    1.1174   -0.0133 H         1 <0>         0.0817
     23 H4          1.4224   -3.0594    1.9773 H         1 <0>         0.0834
     24 H5         -0.3202   -3.1927    2.3147 H         1 <0>         0.0969
     25 H6          0.4393   -4.2686    1.1173 H         1 <0>         0.0933
     26 H7          2.2584   -3.4523   -1.3851 H         1 <0>         0.0960
     27 H8          0.8987   -4.5069   -0.9298 H         1 <0>         0.0890
     28 H9          0.8876   -3.6683   -2.4997 H         1 <0>         0.1154
     29 H10         2.3691   -1.1435   -3.9788 H         1 <0>         0.4185
     30 H11         0.5124    1.8164   -2.7951 H         1 <0>         0.0934
     31 H12         1.9695    2.7948   -3.0914 H         1 <0>         0.0823
     32 H13         1.2826    1.8024   -4.3997 H         1 <0>         0.0760
     33 H14         2.8522   -0.3313   -1.0636 H         1 <0>         0.0662
     34 H15         2.8982    1.4450   -0.9587 H         1 <0>         0.0815
     35 H16         1.3343    0.5956   -0.9920 H         1 <0>         0.0831
     36 H17         5.5165    3.0388   -4.9118 H         1 <0>         0.4026
     37 H18         4.4586   -0.9178   -2.7725 H         1 <0>         0.3957
     38 H19         5.5977    0.0424   -3.5491 H         1 <0>         0.4094
@<TRIPOS>BOND
     1    1    2 1
     2    1   20 1
     3    1   21 1
     4    1   22 1
     5    2    6 2
     6    2    3 1
     7    3    4 2
     8    3    9 1
     9    4    5 1
    10    4    8 1
    11    5    6 1
    12    5    7 1
    13    7   23 1
    14    7   24 1
    15    7   25 1
    16    8   26 1
    17    8   27 1
    18    8   28 1
    19    9   10 2
    20    9   11 2
    21    9   12 1
    22   12   13 1
    23   12   29 1
    24   13   14 1
    25   13   15 1
    26   13   16 1
    27   14   30 1
    28   14   31 1
    29   14   32 1
    30   15   33 1
    31   15   34 1
    32   15   35 1
    33   16   17 2
    34   16   19 1
    35   17   18 1
    36   18   36 1
    37   19   37 1
    38   19   38 1
@<TRIPOS>MOLECULE
ZINC05686038
   43    44     0     0     0
SMALL
USER_CHARGES

@<TRIPOS>ATOM
      1 C1         -0.1834    1.6188   -0.3946 C.3       1 <0>        -0.1624
      2 C2         -0.0538    0.1237   -0.0967 C.3       1 <0>         0.1535
      3 C3          0.6737   -0.0697    1.2353 C.3       1 <0>         0.0657
      4 O1          0.8980   -1.4634    1.4575 O.3       1 <0>        -0.5677
      5 C4         -1.4474   -0.5022   -0.0123 C.3       1 <0>         0.0798
      6 O2         -2.1906    0.1290    1.0324 O.3       1 <0>        -0.5638
      7 N1          0.7080   -0.5233   -1.1677 N.pl3     1 <0>        -0.6404
      8 C5          1.9718   -0.1322   -1.4271 C.2       1 <0>         0.3523
      9 C6          2.6507   -0.6607   -2.5092 C.2       1 <0>        -0.4384
     10 C7          4.0855   -0.3980   -2.7200 C.2       1 <0>         0.5896
     11 O3          4.7145    0.2951   -1.9427 O.2       1 <0>        -0.5155
     12 N2          4.6826   -0.9472   -3.7977 N.am      1 <0>        -0.6640
     13 C8          4.0015   -1.7127   -4.6619 C.2       1 <0>         0.7146
     14 O4          4.5984   -2.1774   -5.6132 O.2       1 <0>        -0.5343
     15 N3          2.6972   -1.9933   -4.5323 N.am      1 <0>        -0.5536
     16 C9          1.9727   -1.5166   -3.4991 C.2       1 <0>         0.5864
     17 O5          0.7905   -1.7824   -3.3898 O.2       1 <0>        -0.5257
     18 C10         2.0448   -2.8414   -5.5330 C.3       1 <0>         0.1530
     19 C11         2.1450   -4.2845   -5.1106 C.ar      1 <0>        -0.1192
     20 C12         3.2303   -5.0456   -5.5026 C.ar      1 <0>        -0.0923
     21 C13         3.3223   -6.3694   -5.1152 C.ar      1 <0>        -0.1265
     22 C14         2.3291   -6.9319   -4.3354 C.ar      1 <0>        -0.1097
     23 C15         1.2442   -6.1705   -3.9426 C.ar      1 <0>        -0.1275
     24 C16         1.1544   -4.8456   -4.3265 C.ar      1 <0>        -0.0938
     25 H1          0.8094    2.0647   -0.4547 H         1 <0>         0.0673
     26 H2         -0.7017    1.7567   -1.3435 H         1 <0>         0.0742
     27 H3         -0.7503    2.1003    0.4023 H         1 <0>         0.0903
     28 H4          1.6302    0.4521    1.2060 H         1 <0>         0.0540
     29 H5          0.0643    0.3336    2.0440 H         1 <0>         0.0769
     30 H6          1.3562   -1.6609    2.2858 H         1 <0>         0.3874
     31 H7         -1.9657   -0.3643   -0.9612 H         1 <0>         0.0585
     32 H8         -1.3551   -1.5673    0.1999 H         1 <0>         0.0657
     33 H9         -3.0861   -0.2185    1.1433 H         1 <0>         0.3916
     34 H10         0.3032   -1.2332   -1.6903 H         1 <0>         0.4256
     35 H11         2.4538    0.5941   -0.7894 H         1 <0>         0.1714
     36 H12         5.6264   -0.7841   -3.9510 H         1 <0>         0.4330
     37 H13         0.9953   -2.5600   -5.6190 H         1 <0>         0.1081
     38 H14         2.5364   -2.7099   -6.4969 H         1 <0>         0.1090
     39 H15         4.0063   -4.6062   -6.1118 H         1 <0>         0.1306
     40 H16         4.1699   -6.9642   -5.4220 H         1 <0>         0.1236
     41 H17         2.4006   -7.9663   -4.0333 H         1 <0>         0.1222
     42 H18         0.4681   -6.6101   -3.3337 H         1 <0>         0.1225
     43 H19         0.3087   -4.2497   -4.0165 H         1 <0>         0.1277
@<TRIPOS>BOND
     1    1    2 1
     2    1   25 1
     3    1   26 1
     4    1   27 1
     5    2    3 1
     6    2    5 1
     7    2    7 1
     8    3    4 1
     9    3   28 1
    10    3   29 1
    11    4   30 1
    12    5    6 1
    13    5   31 1
    14    5   32 1
    15    6   33 1
    16    7    8 1
    17    7   34 1
    18    8    9 2
    19    8   35 1
    20    9   16 1
    21    9   10 1
    22   10   11 2
    23   10   12 am
    24   12   13 am
    25   12   36 1
    26   13   14 2
    27   13   15 am
    28   15   16 am
    29   15   18 1
    30   16   17 2
    31   18   19 1
    32   18   37 1
    33   18   38 1
    34   19   24 ar
    35   19   20 ar
    36   20   21 ar
    37   20   39 1
    38   21   22 ar
    39   21   40 1
    40   22   23 ar
    41   22   41 1
    42   23   24 ar
    43   23   42 1
    44   24   43 1
@<TRIPOS>MOLECULE
ZINC35296478
   32    33     0     0     0
SMALL
USER_CHARGES

@<TRIPOS>ATOM
      1 C1         -0.0166    1.3734    0.0096 C.ar      1 <0>        -0.1320
      2 C2          1.1694    2.0960    0.0021 C.ar      1 <0>        -0.0716
      3 C3          2.3868    1.4533   -0.0134 C.ar      1 <0>        -0.1045
      4 C4          2.4319    0.0576   -0.0213 C.ar      1 <0>         0.1497
      5 C5          1.2238   -0.6740   -0.0133 C.ar      1 <0>        -0.1955
      6 C6          0.0021   -0.0041    0.0020 C.ar      1 <0>        -0.0411
      7 C7          1.3057   -2.1421   -0.0225 C.2       1 <0>         0.5536
      8 O1          0.3025   -2.8315   -0.0167 O.2       1 <0>        -0.5021
      9 N1          2.5401   -2.6970   -0.0382 N.am      1 <0>        -0.6489
     10 H1          2.6329   -3.6626   -0.0446 H         1 <0>         0.4207
     11 C8          3.6503   -1.9141   -0.0454 C.2       1 <0>         0.4039
     12 N2          3.6091   -0.6164   -0.0371 N.2       1 <0>        -0.4966
     13 C9          4.9990   -2.5863   -0.0634 C.3       1 <0>        -0.0550
     14 S1          6.3030   -1.3253   -0.0699 S.3       1 <0>        -0.1771
     15 C10         7.8419   -2.2856   -0.0915 C.3       1 <0>        -0.1264
     16 C11         9.0382   -1.3318   -0.0987 C.3       1 <0>        -0.0253
     17 H2          8.9460   -0.6396   -0.9356 H         1 <0>         0.1436
     18 C12        10.3119   -2.1246   -0.2404 C.2       1 <0>         0.4943
     19 O2         10.5713   -2.6780   -1.2953 O.co2     1 <0>        -0.6288
     20 O3         11.0830   -2.2126    0.6999 O.co2     1 <0>        -0.6651
     21 N3          9.0694   -0.5760    1.1606 N.4       1 <0>        -0.6130
     22 H3         -0.9617    1.8959    0.0260 H         1 <0>         0.1369
     23 H4          1.1363    3.1755    0.0083 H         1 <0>         0.1377
     24 H5          3.3025    2.0258   -0.0198 H         1 <0>         0.1415
     25 H6         -0.9234   -0.5607    0.0082 H         1 <0>         0.1402
     26 H7          5.1043   -3.2133    0.8220 H         1 <0>         0.1220
     27 H8          5.0856   -3.2032   -0.9578 H         1 <0>         0.1255
     28 H9          7.8874   -2.9189    0.7945 H         1 <0>         0.1001
     29 H10         7.8687   -2.9088   -0.9854 H         1 <0>         0.1274
     30 H11         8.2165   -0.0452    1.2555 H         1 <0>         0.4189
     31 H12         9.1547   -1.2167    1.9354 H         1 <0>         0.4320
     32 H13         9.8583    0.0530    1.1559 H         1 <0>         0.4348
@<TRIPOS>BOND
     1    1    6 ar
     2    1    2 ar
     3    1   22 1
     4    2    3 ar
     5    2   23 1
     6    3    4 ar
     7    3   24 1
     8    4   12 1
     9    4    5 ar
    10    5    6 ar
    11    5    7 1
    12    6   25 1
    13    7    8 2
    14    7    9 am
    15    9   10 1
    16    9   11 1
    17   11   12 2
    18   11   13 1
    19   13   14 1
    20   13   26 1
    21   13   27 1
    22   14   15 1
    23   15   16 1
    24   15   28 1
    25   15   29 1
    26   16   17 1
    27   16   18 1
    28   16   21 1
    29   18   19 2
    30   18   20 1
    31   21   30 1
    32   21   31 1
    33   21   32 1
@<TRIPOS>MOLECULE
ZINC40376244
   35    35     0     0     0
SMALL
USER_CHARGES

@<TRIPOS>ATOM
      1 C1         -0.0184    1.5028    0.0103 C.3       1 <0>        -0.1448
      2 C2          0.0021   -0.0041    0.0020 C.2       1 <0>         0.2186
      3 C3          0.0079   -0.7958   -1.0953 C.2       1 <0>        -0.8227
      4 C4          0.0284   -2.1267   -0.6656 C.2       1 <0>         0.1679
      5 N1          0.0347   -2.1338    0.6427 N.2       1 <0>        -0.2889
      6 N2          0.0237   -0.8054    1.0876 N.pl3     1 <0>        -0.4611
      7 H1          0.0286   -0.5133    2.0125 H         1 <0>         0.4428
      8 C5          0.0404   -3.3426   -1.5559 C.3       1 <0>        -0.1121
      9 S1         -0.0081   -0.2472   -2.7696 S.o2      1 <0>         2.7212
     10 O1         -0.5477   -1.3118   -3.5407 O.2       1 <0>        -0.9507
     11 O2         -0.5775    1.0548   -2.7649 O.2       1 <0>        -0.9564
     12 N3          1.5692   -0.0722   -3.2427 N.pl3     1 <0>        -1.0009
     13 C6          2.2821   -1.2004   -3.8471 C.3       1 <0>         0.0887
     14 C7          2.2518    1.2106   -3.0567 C.3       1 <0>         0.1262
     15 C8          3.0311    1.1876   -1.7403 C.3       1 <0>        -0.0907
     16 C9          3.7332    2.5073   -1.5490 C.2       1 <0>         0.3677
     17 N4          3.6140    3.4371   -2.4378 N.2       1 <0>        -0.4180
     18 O3          4.2737    4.6771   -2.2581 O.3       1 <0>        -0.4268
     19 N5          4.5020    2.7219   -0.4267 N.pl3     1 <0>        -0.8728
     20 H2          1.0042    1.8801    0.0026 H         1 <0>         0.0947
     21 H3         -0.5455    1.8639   -0.8728 H         1 <0>         0.1295
     22 H4         -0.5286    1.8543    0.9071 H         1 <0>         0.0883
     23 H5          1.0708   -3.6217   -1.7759 H         1 <0>         0.0865
     24 H6         -0.4595   -4.1685   -1.0497 H         1 <0>         0.0845
     25 H7         -0.4815   -3.1172   -2.4858 H         1 <0>         0.1128
     26 H8          2.1462   -1.1788   -4.9284 H         1 <0>         0.0658
     27 H9          3.3441   -1.1266   -3.6129 H         1 <0>         0.0740
     28 H10         1.8865   -2.1351   -3.4498 H         1 <0>         0.0738
     29 H11         2.9411    1.3788   -3.8842 H         1 <0>         0.0991
     30 H12         1.5150    2.0135   -3.0288 H         1 <0>         0.1070
     31 H13         2.3418    1.0195   -0.9129 H         1 <0>         0.0898
     32 H14         3.7679    0.3848   -1.7683 H         1 <0>         0.1008
     33 H15         4.1251    5.3092   -2.9747 H         1 <0>         0.4017
     34 H16         4.5915    2.0237    0.2407 H         1 <0>         0.3959
     35 H17         4.9539    3.5714   -0.3036 H         1 <0>         0.4086
@<TRIPOS>BOND
     1    1    2 1
     2    1   20 1
     3    1   21 1
     4    1   22 1
     5    2    6 1
     6    2    3 2
     7    3    4 1
     8    3    9 1
     9    4    5 2
    10    4    8 1
    11    5    6 1
    12    6    7 1
    13    8   23 1
    14    8   24 1
    15    8   25 1
    16    9   10 2
    17    9   11 2
    18    9   12 1
    19   12   13 1
    20   12   14 1
    21   13   26 1
    22   13   27 1
    23   13   28 1
    24   14   15 1
    25   14   29 1
    26   14   30 1
    27   15   16 1
    28   15   31 1
    29   15   32 1
    30   16   17 2
    31   16   19 1
    32   17   18 1
    33   18   33 1
    34   19   34 1
    35   19   35 1
@<TRIPOS>MOLECULE
ZINC44166973
   37    38     0     0     0
SMALL
USER_CHARGES

@<TRIPOS>ATOM
      1 C1         -0.0157    1.3058    0.0092 C.2       1 <0>        -0.1791
      2 C2          0.0021   -0.0041    0.0020 C.2       1 <0>        -0.1492
      3 C3          1.3172   -0.7397   -0.0145 C.3       1 <0>         0.0934
      4 O1          1.2769   -1.8088    0.9329 O.3       1 <0>        -0.3527
      5 C4          2.4819   -2.5743    0.9971 C.3       1 <0>         0.0655
      6 H1          3.3409   -1.9549    0.7390 H         1 <0>         0.0970
      7 C5          2.3960   -3.7988    0.0587 C.3       1 <0>         0.0627
      8 H2          3.2140   -3.7860   -0.6617 H         1 <0>         0.0853
      9 C6          2.5301   -5.0097    1.0085 C.3       1 <0>         0.0539
     10 H3          1.5451   -5.3802    1.2923 H         1 <0>         0.0945
     11 O2          3.2265   -4.4962    2.1650 O.3       1 <0>        -0.3339
     12 C7          2.6596   -3.1871    2.4039 C.3       1 <0>         0.2955
     13 H4          1.6948   -3.2774    2.9031 H         1 <0>         0.1204
     14 N1          3.5747   -2.3698    3.2044 N.am      1 <0>        -0.5316
     15 C8          3.1164   -1.7328    4.3184 C.2       1 <0>         0.2023
     16 C9          3.9720   -0.9806    5.0503 C.2       1 <0>        -0.3061
     17 C10         5.3163   -0.8781    4.6372 C.2       1 <0>         0.5051
     18 N2          5.7172   -1.5163    3.5455 N.2       1 <0>        -0.6171
     19 C11         4.8648   -2.2565    2.8388 C.2       1 <0>         0.6582
     20 O3          5.2590   -2.8378    1.8414 O.2       1 <0>        -0.5271
     21 N3          6.2068   -0.1203    5.3618 N.pl3     1 <0>        -0.8140
     22 C12         3.3447   -6.1208    0.3432 C.3       1 <0>         0.0815
     23 O4          3.3586   -7.2728    1.1888 O.3       1 <0>        -0.5651
     24 O5          1.1366   -3.8252   -0.6160 O.3       1 <0>        -0.5355
     25 H5          0.9122    1.8585    0.0033 H         1 <0>         0.0968
     26 H6         -0.9582    1.8330    0.0166 H         1 <0>         0.1064
     27 H7         -0.9258   -0.5567    0.0079 H         1 <0>         0.1191
     28 H8          1.4950   -1.1439   -1.0111 H         1 <0>         0.0657
     29 H9          2.1214   -0.0522    0.2475 H         1 <0>         0.0509
     30 H10         2.0819   -1.8266    4.6142 H         1 <0>         0.1775
     31 H11         3.6300   -0.4669    5.9366 H         1 <0>         0.1585
     32 H12         5.9106    0.3454    6.1595 H         1 <0>         0.4156
     33 H13         7.1309   -0.0517    5.0751 H         1 <0>         0.4136
     34 H14         2.8930   -6.3787   -0.6147 H         1 <0>         0.0632
     35 H15         4.3661   -5.7760    0.1823 H         1 <0>         0.0637
     36 H16         3.8582   -8.0185    0.8292 H         1 <0>         0.3843
     37 H17         1.0289   -4.5739   -1.2185 H         1 <0>         0.3812
@<TRIPOS>BOND
     1    1    2 2
     2    1   25 1
     3    1   26 1
     4    2    3 1
     5    2   27 1
     6    3    4 1
     7    3   28 1
     8    3   29 1
     9    4    5 1
    10    5    6 1
    11    5   12 1
    12    5    7 1
    13    7    8 1
    14    7    9 1
    15    7   24 1
    16    9   10 1
    17    9   11 1
    18    9   22 1
    19   11   12 1
    20   12   13 1
    21   12   14 1
    22   14   19 am
    23   14   15 1
    24   15   16 2
    25   15   30 1
    26   16   17 1
    27   16   31 1
    28   17   18 2
    29   17   21 1
    30   18   19 1
    31   19   20 2
    32   21   32 1
    33   21   33 1
    34   22   23 1
    35   22   34 1
    36   22   35 1
    37   23   36 1
    38   24   37 1
@<TRIPOS>MOLECULE
ZINC50657203
   35    35     0     0     0
SMALL
USER_CHARGES

@<TRIPOS>ATOM
      1 C1         -0.0187    1.5258    0.0104 C.3       1 <0>        -0.1670
      2 C2          0.0021   -0.0041    0.0020 C.3       1 <0>         0.1152
      3 N1          0.6878   -0.4765   -1.2033 N.pl3     1 <0>        -0.7120
      4 C3          0.8312   -1.8401   -1.4320 C.ar      1 <0>         0.4473
      5 C4          0.3162   -2.7509   -0.5149 C.ar      1 <0>        -0.2562
      6 C5          0.4660   -4.1046   -0.7549 C.ar      1 <0>         0.0644
      7 C6          1.1284   -4.5040   -1.9085 C.ar      1 <0>        -0.7997
      8 C7          1.6142   -3.5459   -2.7751 C.ar      1 <0>         0.2541
      9 N2          1.4519   -2.2606   -2.5232 N.ar      1 <0>        -0.5514
     10 S1          1.3468   -6.2163   -2.2617 S.o2      1 <0>         2.7054
     11 O1          2.4734   -6.3129   -3.1224 O.2       1 <0>        -0.9514
     12 O2          1.2778   -6.8996   -1.0177 O.2       1 <0>        -0.9542
     13 N3          0.0337   -6.7057   -3.1440 N.pl3     1 <0>        -1.1121
     14 C8         -0.1964   -6.1548   -4.4819 C.3       1 <0>         0.1278
     15 C9         -1.2232   -7.0171   -5.2188 C.3       1 <0>        -0.6408
     16 S2         -1.5081   -6.3350   -6.8754 S.o2      1 <0>         2.6207
     17 O3         -2.1644   -5.0782   -6.7810 O.2       1 <0>        -0.9554
     18 O4         -0.3421   -6.4853   -7.6737 O.2       1 <0>        -0.9518
     19 N4         -2.6253   -7.3444   -7.5649 N.pl3     1 <0>        -1.2490
     20 H1          1.0039    1.9031    0.0027 H         1 <0>         0.0653
     21 H2         -0.5459    1.8868   -0.8726 H         1 <0>         0.0654
     22 H3         -0.5289    1.8773    0.9072 H         1 <0>         0.0799
     23 H4          0.5293   -0.3651    0.8851 H         1 <0>         0.0699
     24 H5         -1.0205   -0.3814    0.0098 H         1 <0>         0.0698
     25 H6          1.0417    0.1622   -1.8418 H         1 <0>         0.4104
     26 H7         -0.1933   -2.4055    0.3725 H         1 <0>         0.1421
     27 H8          0.0769   -4.8349   -0.0608 H         1 <0>         0.1506
     28 H9          2.1302   -3.8520   -3.6731 H         1 <0>         0.1739
     29 H10        -0.5831   -7.3570   -2.7751 H         1 <0>         0.4226
     30 H11        -0.5729   -5.1356   -4.3954 H         1 <0>         0.0838
     31 H12         0.7406   -6.1499   -5.0389 H         1 <0>         0.1011
     32 H13        -0.8466   -8.0363   -5.3053 H         1 <0>         0.1485
     33 H14        -2.1601   -7.0220   -4.6618 H         1 <0>         0.1455
     34 H15        -2.9667   -8.1030   -7.0660 H         1 <0>         0.4140
     35 H16        -2.9383   -7.1770   -8.4676 H         1 <0>         0.4235
@<TRIPOS>BOND
     1    1    2 1
     2    1   20 1
     3    1   21 1
     4    1   22 1
     5    2    3 1
     6    2   23 1
     7    2   24 1
     8    3    4 1
     9    3   25 1
    10    4    9 ar
    11    4    5 ar
    12    5    6 ar
    13    5   26 1
    14    6    7 ar
    15    6   27 1
    16    7    8 ar
    17    7   10 1
    18    8    9 ar
    19    8   28 1
    20   10   11 2
    21   10   12 2
    22   10   13 1
    23   13   14 1
    24   13   29 1
    25   14   15 1
    26   14   30 1
    27   14   31 1
    28   15   16 1
    29   15   32 1
    30   15   33 1
    31   16   17 2
    32   16   18 2
    33   16   19 1
    34   19   34 1
    35   19   35 1
@<TRIPOS>MOLECULE
ZINC63818131
   39    41     0     0     0
SMALL
USER_CHARGES

@<TRIPOS>ATOM
      1 C1          0.2598    1.4117    0.0065 C.3       1 <0>         0.0838
      2 N1          0.2396   -0.0531    0.0082 N.am      1 <0>        -0.7110
      3 C2          0.7874   -0.7335    1.0346 C.2       1 <0>         0.5369
      4 O1          1.2970   -0.1330    1.9569 O.2       1 <0>        -0.5288
      5 C3          0.7666   -2.2403    1.0363 C.3       1 <0>         0.2208
      6 H1          1.4075   -2.6272    1.8286 H         1 <0>         0.0990
      7 N2         -0.6180   -2.7368    1.2043 N.3       1 <0>        -0.6712
      8 C4         -0.7326   -3.9395    0.3519 C.3       1 <0>         0.2163
      9 H2         -1.5031   -3.7922   -0.4048 H         1 <0>         0.0978
     10 N3          0.5917   -4.1052   -0.2923 N.3       1 <0>        -0.4788
     11 O2          1.1899   -2.7512   -0.2482 O.3       1 <0>        -0.2278
     12 C5         -1.0617   -5.1640    1.2081 C.3       1 <0>        -0.1501
     13 C6         -1.1747   -6.3794    0.3243 C.2       1 <0>         0.5271
     14 O3         -1.0083   -6.2763   -0.8727 O.2       1 <0>        -0.5189
     15 N4         -1.4607   -7.5809    0.8639 N.am      1 <0>        -0.6827
     16 C7         -1.6680   -8.6895    0.0342 C.2       1 <0>         0.1302
     17 C8         -2.8351   -9.3501    0.1239 C.2       1 <0>        -0.1209
     18 C9         -3.0468  -10.5710   -0.7212 C.3       1 <0>         0.0712
     19 H3         -2.7402  -11.4595   -0.1692 H         1 <0>         0.1448
     20 C10        -2.1950  -10.4214   -1.9675 C.2       1 <0>        -0.0898
     21 C11        -3.0130  -10.6977   -2.9977 C.2       1 <0>        -0.1736
     22 C12        -4.3347  -10.8457   -2.5194 C.2       1 <0>         0.1421
     23 N5         -4.4032  -10.7449   -1.2211 N.2       1 <0>        -0.4719
     24 C13        -0.8742   -9.9318   -1.9254 C.2       1 <0>        -0.0952
     25 C14        -0.6067   -9.0750   -0.8975 C.2       1 <0>        -0.0795
     26 H4          1.2920    1.7609    0.0329 H         1 <0>         0.0627
     27 H5         -0.2256    1.7808   -0.8969 H         1 <0>         0.0785
     28 H6         -0.2719    1.7834    0.8824 H         1 <0>         0.0632
     29 H7         -0.1680   -0.5334   -0.7295 H         1 <0>         0.4076
     30 H8         -0.8079   -2.9587    2.1702 H         1 <0>         0.3656
     31 H9          0.4933   -4.4268   -1.2436 H         1 <0>         0.3784
     32 H10        -0.2690   -5.3194    1.9399 H         1 <0>         0.1106
     33 H11        -2.0073   -5.0020    1.7256 H         1 <0>         0.1173
     34 H12        -1.5228   -7.6775    1.8271 H         1 <0>         0.4117
     35 H13        -3.6088   -9.0071    0.7949 H         1 <0>         0.1372
     36 H14        -2.7082  -10.7915   -4.0295 H         1 <0>         0.1473
     37 H15        -5.1893  -11.0227   -3.1554 H         1 <0>         0.1740
     38 H16        -0.1294  -10.2111   -2.6559 H         1 <0>         0.1459
     39 H17         0.3918   -8.6838   -0.7693 H         1 <0>         0.1303
@<TRIPOS>BOND
     1    1    2 1
     2    1   26 1
     3    1   27 1
     4    1   28 1
     5    2    3 am
     6    2   29 1
     7    3    4 2
     8    3    5 1
     9    5    6 1
    10    5   11 1
    11    5    7 1
    12    7    8 1
    13    7   30 1
    14    8    9 1
    15    8   10 1
    16    8   12 1
    17   10   11 1
    18   10   31 1
    19   12   13 1
    20   12   32 1
    21   12   33 1
    22   13   14 2
    23   13   15 am
    24   15   16 1
    25   15   34 1
    26   16   25 1
    27   16   17 2
    28   17   18 1
    29   17   35 1
    30   18   19 1
    31   18   23 1
    32   18   20 1
    33   20   21 2
    34   20   24 1
    35   21   22 1
    36   21   36 1
    37   22   23 2
    38   22   37 1
    39   24   25 2
    40   24   38 1
    41   25   39 1
@<TRIPOS>MOLECULE
ZINC35679190
   36    37     0     0     0
SMALL
USER_CHARGES

@<TRIPOS>ATOM
      1 C1         -0.0163    1.3513    0.0095 C.2       1 <0>        -0.1572
      2 C2          1.1833    2.0380    0.0017 C.2       1 <0>        -0.0072
      3 C3          2.3426    1.3358   -0.0131 C.2       1 <0>        -0.7475
      4 S1          1.7535   -0.3495   -0.0166 S.3       1 <0>         0.1877
      5 C4          0.0021   -0.0041    0.0020 C.2       1 <0>        -0.1507
      6 C5         -1.1555   -0.9689    0.0083 C.3       1 <0>        -0.0646
      7 C6         -1.5616   -1.2877   -1.4320 C.3       1 <0>        -0.0083
      8 N1         -2.6900   -2.2282   -1.4258 N.4       1 <0>        -0.6366
      9 S2          4.0007    1.9316   -0.0263 S.o2      1 <0>         2.7182
     10 O1          4.7986    0.8998   -0.5901 O.2       1 <0>        -0.9341
     11 O2          3.9565    3.2437   -0.5701 O.2       1 <0>        -0.9330
     12 N2          4.4769    2.0892    1.5520 N.pl3     1 <0>        -1.0994
     13 C7          4.5958    0.9028    2.4031 C.3       1 <0>         0.1563
     14 H1          3.9539    0.1125    2.0139 H         1 <0>         0.1014
     15 C8          6.0558    0.4201    2.4050 C.3       1 <0>        -0.1568
     16 C9          6.2180   -0.6280    3.5427 C.3       1 <0>        -0.5707
     17 S3          5.2132    0.1589    4.8717 S.o2      1 <0>         2.3737
     18 O3          6.0632    0.9600    5.6809 O.2       1 <0>        -0.9218
     19 O4          4.3968   -0.8314    5.4817 O.2       1 <0>        -0.9306
     20 C10         4.1571    1.2582    3.8442 C.3       1 <0>        -0.6015
     21 H2         -0.9542    1.8866    0.0258 H         1 <0>         0.1500
     22 H3          1.1967    3.1179    0.0070 H         1 <0>         0.1577
     23 H4         -0.8598   -1.8879    0.5143 H         1 <0>         0.1096
     24 H5         -1.9993   -0.5207    0.5329 H         1 <0>         0.1159
     25 H6         -1.8573   -0.3687   -1.9380 H         1 <0>         0.1413
     26 H7         -0.7178   -1.7360   -1.9566 H         1 <0>         0.1395
     27 H8         -2.4162   -3.0790   -0.9574 H         1 <0>         0.4377
     28 H9         -3.4711   -1.8133   -0.9402 H         1 <0>         0.4376
     29 H10         4.6770    2.9671    1.9128 H         1 <0>         0.4301
     30 H11         6.2930   -0.0388    1.4451 H         1 <0>         0.1189
     31 H12         6.7223    1.2638    2.5839 H         1 <0>         0.1039
     32 H13         5.8015   -1.5926    3.2524 H         1 <0>         0.1439
     33 H14         7.2613   -0.7257    3.8429 H         1 <0>         0.1514
     34 H15         4.3618    2.3062    4.0632 H         1 <0>         0.1533
     35 H16         3.1019    1.0298    3.9944 H         1 <0>         0.1481
     36 H17        -2.9578   -2.4385   -2.3757 H         1 <0>         0.4435
@<TRIPOS>BOND
     1    1    5 2
     2    1    2 1
     3    1   21 1
     4    2    3 2
     5    2   22 1
     6    3    4 1
     7    3    9 1
     8    4    5 1
     9    5    6 1
    10    6    7 1
    11    6   23 1
    12    6   24 1
    13    7    8 1
    14    7   25 1
    15    7   26 1
    16    8   27 1
    17    8   28 1
    18    8   36 1
    19    9   10 2
    20    9   11 2
    21    9   12 1
    22   12   13 1
    23   12   29 1
    24   13   14 1
    25   13   20 1
    26   13   15 1
    27   15   16 1
    28   15   30 1
    29   15   31 1
    30   16   17 1
    31   16   32 1
    32   16   33 1
    33   17   18 2
    34   17   19 2
    35   17   20 1
    36   20   34 1
    37   20   35 1
@<TRIPOS>MOLECULE
ZINC37951718
   45    45     0     0     0
SMALL
USER_CHARGES

@<TRIPOS>ATOM
      1 C1         -0.0187    1.5258    0.0104 C.3       1 <0>        -0.1332
      2 C2          0.0021   -0.0041    0.0020 C.3       1 <0>         0.1460
      3 C3          0.7309   -0.5033    1.2229 C.ar      1 <0>        -0.0403
      4 C4          0.0804   -1.3166    2.1319 C.ar      1 <0>        -0.1222
      5 C5          0.7490   -1.7745    3.2518 C.ar      1 <0>        -0.0212
      6 C6          2.0682   -1.4195    3.4625 C.ar      1 <0>        -0.6496
      7 C7          2.7191   -0.6070    2.5531 C.ar      1 <0>        -0.0157
      8 C8          2.0518   -0.1525    1.4310 C.ar      1 <0>        -0.1240
      9 S1          2.9201   -2.0023    4.8906 S.o2      1 <0>         2.4967
     10 O1          3.9313   -1.0332    5.1302 O.2       1 <0>        -0.9307
     11 O2          1.8994   -2.2369    5.8510 O.2       1 <0>        -0.9323
     12 C9          3.6688   -3.5730    4.3781 C.3       1 <0>        -0.6493
     13 C10         0.7074   -0.4901   -1.2379 C.2       1 <0>         0.4910
     14 O3          1.5216    0.2194   -1.7898 O.2       1 <0>        -0.5097
     15 N1          0.4335   -1.7132   -1.7333 N.am      1 <0>        -0.8575
     16 N2         -1.3761   -0.5125    0.0124 N.3       1 <0>        -0.6598
     17 C11        -2.1186   -0.0451   -1.1657 C.3       1 <0>         0.0146
     18 C12        -3.5461   -0.5938   -1.1197 C.3       1 <0>        -0.0101
     19 N3         -4.2886   -0.1263   -2.2978 N.4       1 <0>        -0.3849
     20 C13        -3.6913   -0.6985   -3.5119 C.3       1 <0>        -0.0553
     21 C14        -5.6905   -0.5528   -2.1941 C.3       1 <0>        -0.0463
     22 H1          1.0039    1.9031    0.0027 H         1 <0>         0.0860
     23 H2         -0.5459    1.8868   -0.8726 H         1 <0>         0.0642
     24 H3         -0.5289    1.8773    0.9072 H         1 <0>         0.0840
     25 H4         -0.9503   -1.5939    1.9673 H         1 <0>         0.1412
     26 H5          0.2405   -2.4093    3.9623 H         1 <0>         0.1482
     27 H6          3.7497   -0.3293    2.7179 H         1 <0>         0.1495
     28 H7          2.5614    0.4793    0.7185 H         1 <0>         0.1389
     29 H8          4.3505   -3.3963    3.5462 H         1 <0>         0.1320
     30 H9          4.2201   -4.0027    5.2146 H         1 <0>         0.1375
     31 H10         2.8858   -4.2640    4.0658 H         1 <0>         0.1313
     32 H11        -0.2176   -2.2806   -1.2919 H         1 <0>         0.3949
     33 H12         0.8876   -2.0260   -2.5314 H         1 <0>         0.4106
     34 H13        -1.3895   -1.5197    0.0721 H         1 <0>         0.3521
     35 H14        -2.1481    1.0445   -1.1678 H         1 <0>         0.1077
     36 H15        -1.6231   -0.3969   -2.0706 H         1 <0>         0.0611
     37 H16        -3.5166   -1.6834   -1.1176 H         1 <0>         0.1303
     38 H17        -4.0416   -0.2420   -0.2148 H         1 <0>         0.1453
     39 H18        -4.2423   -0.3516   -4.3861 H         1 <0>         0.1282
     40 H19        -2.6511   -0.3820   -3.5889 H         1 <0>         0.1216
     41 H20        -3.7373   -1.7863   -3.4615 H         1 <0>         0.1236
     42 H21        -6.1337   -0.1283   -1.2933 H         1 <0>         0.1262
     43 H22        -6.2415   -0.2059   -3.0683 H         1 <0>         0.1268
     44 H23        -5.7365   -1.6407   -2.1437 H         1 <0>         0.1229
     45 H24        -4.2460    0.8807   -2.3445 H         1 <0>         0.4294
@<TRIPOS>BOND
     1    1    2 1
     2    1   22 1
     3    1   23 1
     4    1   24 1
     5    2    3 1
     6    2   13 1
     7    2   16 1
     8    3    8 ar
     9    3    4 ar
    10    4    5 ar
    11    4   25 1
    12    5    6 ar
    13    5   26 1
    14    6    7 ar
    15    6    9 1
    16    7    8 ar
    17    7   27 1
    18    8   28 1
    19    9   10 2
    20    9   11 2
    21    9   12 1
    22   12   29 1
    23   12   30 1
    24   12   31 1
    25   13   14 2
    26   13   15 am
    27   15   32 1
    28   15   33 1
    29   16   17 1
    30   16   34 1
    31   17   18 1
    32   17   35 1
    33   17   36 1
    34   18   19 1
    35   18   37 1
    36   18   38 1
    37   19   20 1
    38   19   21 1
    39   19   45 1
    40   20   39 1
    41   20   40 1
    42   20   41 1
    43   21   42 1
    44   21   43 1
    45   21   44 1
@<TRIPOS>MOLECULE
ZINC44679135
   39    39     0     0     0
SMALL
USER_CHARGES

@<TRIPOS>ATOM
      1 C1         -0.0173    1.4248    0.0099 C.3       1 <0>         0.0307
      2 O1          0.0021   -0.0041    0.0020 O.3       1 <0>        -0.3930
      3 C2          0.6734   -0.5824    1.1231 C.3       1 <0>         0.0602
      4 C3          0.6327   -2.1077    1.0107 C.3       1 <0>        -0.1172
      5 C4          1.3514   -2.7270    2.2110 C.3       1 <0>        -0.1307
      6 C5          1.3107   -4.2523    2.0986 C.3       1 <0>         0.1181
      7 N1          1.9990   -4.8452    3.2480 N.am      1 <0>        -0.7207
      8 C6          2.0887   -6.1851    3.3619 C.2       1 <0>         0.5625
      9 O2          1.5987   -6.9016    2.5111 O.2       1 <0>        -0.5259
     10 C7          2.7833   -6.7836    4.5219 C.ar      1 <0>        -0.1843
     11 C8          2.8875   -8.1719    4.6475 C.ar      1 <0>         0.0244
     12 C9          3.5539   -8.6849    5.7627 C.ar      1 <0>        -0.0941
     13 C10         4.0857   -7.7981    6.7012 C.ar      1 <0>         0.1715
     14 N2          3.9653   -6.4955    6.5447 N.ar      1 <0>        -0.4768
     15 C11         3.3499   -5.9704    5.5051 C.ar      1 <0>         0.1671
     16 C12         3.6892  -10.0992    5.9413 C.1       1 <0>         0.0105
     17 C13         3.8002  -11.2588    6.0877 C.1       1 <0>        -0.2725
     18 C14         3.9393  -12.7126    6.2713 C.3       1 <0>         0.1428
     19 N3          4.6753  -12.9811    7.5140 N.4       1 <0>        -0.6382
     20 H1          1.0053    1.8021    0.0021 H         1 <0>         0.0427
     21 H2         -0.5445    1.7859   -0.8732 H         1 <0>         0.0890
     22 H3         -0.5275    1.7763    0.9067 H         1 <0>         0.0426
     23 H4          1.7103   -0.2468    1.1385 H         1 <0>         0.0500
     24 H5          0.1775   -0.2725    2.0430 H         1 <0>         0.0498
     25 H6         -0.4042   -2.4434    0.9953 H         1 <0>         0.0767
     26 H7          1.1285   -2.4176    0.0908 H         1 <0>         0.0769
     27 H8          2.3884   -2.3913    2.2264 H         1 <0>         0.0747
     28 H9          0.8556   -2.4171    3.1309 H         1 <0>         0.0744
     29 H10         0.2738   -4.5879    2.0833 H         1 <0>         0.0765
     30 H11         1.8066   -4.5622    1.1787 H         1 <0>         0.0768
     31 H12         2.3900   -4.2734    3.9270 H         1 <0>         0.4019
     32 H13         2.4641   -8.8298    3.9029 H         1 <0>         0.1573
     33 H14         4.6024   -8.1853    7.5669 H         1 <0>         0.1722
     34 H15         3.2788   -4.8965    5.4144 H         1 <0>         0.1710
     35 H16         2.9506  -13.1678    6.3291 H         1 <0>         0.1553
     36 H17         4.4849  -13.1348    5.4274 H         1 <0>         0.1557
     37 H18         5.5905  -12.5597    7.4605 H         1 <0>         0.4386
     38 H19         4.1702  -12.5902    8.2951 H         1 <0>         0.4389
     39 H20         4.7707  -13.9776    7.6398 H         1 <0>         0.4447
@<TRIPOS>BOND
     1    1    2 1
     2    1   20 1
     3    1   21 1
     4    1   22 1
     5    2    3 1
     6    3    4 1
     7    3   23 1
     8    3   24 1
     9    4    5 1
    10    4   25 1
    11    4   26 1
    12    5    6 1
    13    5   27 1
    14    5   28 1
    15    6    7 1
    16    6   29 1
    17    6   30 1
    18    7    8 am
    19    7   31 1
    20    8    9 2
    21    8   10 1
    22   10   15 ar
    23   10   11 ar
    24   11   12 ar
    25   11   32 1
    26   12   13 ar
    27   12   16 1
    28   13   14 ar
    29   13   33 1
    30   14   15 ar
    31   15   34 1
    32   16   17 3
    33   17   18 1
    34   18   19 1
    35   18   35 1
    36   18   36 1
    37   19   37 1
    38   19   38 1
    39   19   39 1
@<TRIPOS>MOLECULE
ZINC26826141
   46    49     0     0     0
SMALL
USER_CHARGES

@<TRIPOS>ATOM
      1 C1          0.3983    1.4493   -0.1585 C.3       1 <0>        -0.1220
      2 C2          0.1679   -0.0385   -0.0915 C.2       1 <0>        -0.0739
      3 C3         -0.3570   -0.7155   -1.2049 C.2       1 <0>        -0.0234
      4 C4         -0.5637   -2.0583   -1.1412 C.2       1 <0>        -0.1178
      5 C5         -0.2467   -2.7509    0.0456 C.cat     1 <0>         0.2905
      6 N1          0.2643   -2.0622    1.1159 N.pl3     1 <0>        -0.3182
      7 C6          0.4718   -0.7151    1.0358 C.2       1 <0>         0.0718
      8 C7          0.4763   -2.9685    2.1166 C.2       1 <0>        -0.0244
      9 C8          0.0928   -4.1869    1.6409 C.2       1 <0>         0.1500
     10 N2         -0.3428   -4.0289    0.3806 N.pl3     1 <0>        -0.4028
     11 C9         -0.8438   -5.0989   -0.4856 C.3       1 <0>         0.0455
     12 C10         0.1469   -5.4671    2.3872 C.ar      1 <0>        -0.0659
     13 C11         0.1775   -6.6773    1.6935 C.ar      1 <0>        -0.1047
     14 C12         0.2272   -7.8664    2.3847 C.ar      1 <0>        -0.0921
     15 C13         0.2476   -7.8612    3.7829 C.ar      1 <0>         0.0065
     16 C14         0.2174   -6.6474    4.4765 C.ar      1 <0>        -0.0823
     17 C15         0.1730   -5.4599    3.7821 C.ar      1 <0>        -0.0763
     18 C16         0.3004   -9.1332    4.5243 C.2       1 <0>         0.0481
     19 N3          0.3193   -9.1275    5.8231 N.2       1 <0>        -0.1882
     20 N4          0.3695  -10.3371    6.5283 N.pl3     1 <0>        -0.5429
     21 C17         0.3898  -10.3310    7.9257 C.2       1 <0>         0.3676
     22 C18         0.4450  -11.4641    8.7524 C.2       1 <0>        -0.3698
     23 C19         0.4486  -11.0367   10.0442 C.2       1 <0>         0.3944
     24 N5          0.3975   -9.6794   10.0281 N.pl3     1 <0>        -0.5011
     25 H1          0.3881   -9.0997   10.8058 H         1 <0>         0.4391
     26 N6          0.3665   -9.2642    8.6908 N.2       1 <0>        -0.3184
     27 N7          0.4955  -11.8442   11.1769 N.pl3     1 <0>        -0.8534
     28 H2          1.4046    1.6448   -0.5290 H         1 <0>         0.0953
     29 H3         -0.3307    1.8999   -0.8320 H         1 <0>         0.0914
     30 H4          0.2876    1.8793    0.8369 H         1 <0>         0.0863
     31 H5         -0.5955   -0.1722   -2.1072 H         1 <0>         0.1735
     32 H6         -0.9671   -2.5889   -1.9910 H         1 <0>         0.1770
     33 H7          0.8789   -0.1852    1.8843 H         1 <0>         0.1983
     34 H8          0.8735   -2.7590    3.0988 H         1 <0>         0.2265
     35 H9         -0.0044   -5.5947   -0.9732 H         1 <0>         0.1121
     36 H10        -1.3953   -5.8233    0.1137 H         1 <0>         0.1217
     37 H11        -1.5044   -4.6749   -1.2419 H         1 <0>         0.1141
     38 H12         0.1617   -6.6809    0.6137 H         1 <0>         0.1341
     39 H13         0.2502   -8.8030    1.8474 H         1 <0>         0.1430
     40 H14         0.2331   -6.6417    5.5563 H         1 <0>         0.1503
     41 H15         0.1537   -4.5221    4.3174 H         1 <0>         0.1367
     42 H16         0.3233  -10.0703    3.9880 H         1 <0>         0.1260
     43 H17         0.3901  -11.1788    6.0466 H         1 <0>         0.4058
     44 H18         0.4779  -12.4918    8.4220 H         1 <0>         0.1482
     45 H19         0.5297  -12.8091   11.0837 H         1 <0>         0.4196
     46 H20         0.4939  -11.4420   12.0596 H         1 <0>         0.4040
@<TRIPOS>BOND
     1    1    2 1
     2    1   28 1
     3    1   29 1
     4    1   30 1
     5    2    7 2
     6    2    3 1
     7    3    4 2
     8    3   31 1
     9    4    5 1
    10    4   32 1
    11    5   10 2
    12    5    6 1
    13    6    7 1
    14    6    8 1
    15    7   33 1
    16    8    9 2
    17    8   34 1
    18    9   10 1
    19    9   12 1
    20   10   11 1
    21   11   35 1
    22   11   36 1
    23   11   37 1
    24   12   17 ar
    25   12   13 ar
    26   13   14 ar
    27   13   38 1
    28   14   15 ar
    29   14   39 1
    30   15   16 ar
    31   15   18 1
    32   16   17 ar
    33   16   40 1
    34   17   41 1
    35   18   19 2
    36   18   42 1
    37   19   20 1
    38   20   21 1
    39   20   43 1
    40   21   26 2
    41   21   22 1
    42   22   23 2
    43   22   44 1
    44   23   24 1
    45   23   27 1
    46   24   25 1
    47   24   26 1
    48   27   45 1
    49   27   46 1
@<TRIPOS>MOLECULE
ZINC62858205
   48    49     0     0     0
SMALL
USER_CHARGES

@<TRIPOS>ATOM
      1 C1         -0.4609    1.4137   -0.0815 C.3       1 <0>        -0.1558
      2 C2         -0.3366   -0.1105   -0.1279 C.3       1 <0>        -0.1256
      3 C3          0.6491   -0.5085   -1.2283 C.3       1 <0>        -0.1256
      4 C4          0.8516   -2.0249   -1.2074 C.3       1 <0>        -0.0972
      5 C5         -0.5078   -2.7237   -1.3022 C.3       1 <0>        -0.1113
      6 C6         -0.2892   -4.2384   -1.3595 C.3       1 <0>        -0.1591
      7 C7          0.6186   -4.5727   -2.5451 C.3       1 <0>        -0.0094
      8 N1          1.9110   -3.8961   -2.3825 N.4       1 <0>        -0.5063
      9 C8          1.7171   -2.4413   -2.3987 C.3       1 <0>        -0.0194
     10 C9          1.5352   -2.4238    0.0750 C.2       1 <0>         0.5020
     11 O1          1.0032   -3.2144    0.8253 O.2       1 <0>        -0.5059
     12 N2          2.7377   -1.9019    0.3882 N.am      1 <0>        -0.6035
     13 C10         3.4389   -1.0197   -0.5551 C.3       1 <0>         0.0604
     14 C11         3.7594    0.3013    0.1551 C.3       1 <0>         0.0980
     15 N3          4.3927   -0.0012    1.4463 N.pl3     1 <0>        -1.0041
     16 C12         3.6915   -0.8835    2.3896 C.3       1 <0>         0.1005
     17 C13         3.3685   -2.2000    1.6817 C.3       1 <0>         0.0956
     18 S1          5.8702    0.6400    1.8311 S.o2      1 <0>         2.7937
     19 O2          6.4474   -0.2233    2.8012 O.2       1 <0>        -0.9714
     20 O3          6.5144    0.9427    0.6012 O.2       1 <0>        -0.9756
     21 N4          5.5939    2.0861    2.5892 N.pl3     1 <0>        -1.2604
     22 H1          0.5149    1.8516    0.1291 H         1 <0>         0.0551
     23 H2         -0.8229    1.7782   -1.0428 H         1 <0>         0.0605
     24 H3         -1.1632    1.6973    0.7024 H         1 <0>         0.0634
     25 H4          0.0254   -0.4750    0.8334 H         1 <0>         0.0638
     26 H5         -1.3124   -0.5483   -0.3385 H         1 <0>         0.0739
     27 H6          0.2520   -0.2083   -2.1979 H         1 <0>         0.0925
     28 H7          1.6043   -0.0121   -1.0573 H         1 <0>         0.0900
     29 H8         -1.1073   -2.4749   -0.4266 H         1 <0>         0.1044
     30 H9         -1.0242   -2.3956   -2.2042 H         1 <0>         0.0914
     31 H10         0.1812   -4.5735   -0.4351 H         1 <0>         0.1100
     32 H11        -1.2489   -4.7402   -1.4831 H         1 <0>         0.1148
     33 H12         0.7761   -5.6503   -2.5890 H         1 <0>         0.1353
     34 H13         0.1472   -4.2374   -3.4690 H         1 <0>         0.1330
     35 H14         2.3244   -4.1696   -1.5036 H         1 <0>         0.4250
     36 H15         1.2223   -2.1514   -3.3256 H         1 <0>         0.1497
     37 H16         2.6857   -1.9454   -2.3344 H         1 <0>         0.1440
     38 H17         4.3647   -1.4941   -0.8805 H         1 <0>         0.0909
     39 H18         2.8014   -0.8260   -1.4178 H         1 <0>         0.1127
     40 H19         4.4417    0.8901   -0.4580 H         1 <0>         0.1157
     41 H20         2.8384    0.8601    0.3214 H         1 <0>         0.0837
     42 H21         4.3290   -1.0771    3.2523 H         1 <0>         0.1158
     43 H22         2.7657   -0.4091    2.7150 H         1 <0>         0.0811
     44 H23         2.6844   -2.7856    2.2960 H         1 <0>         0.1136
     45 H24         4.2892   -2.7604    1.5193 H         1 <0>         0.0852
     46 H25         4.6850    2.3962    2.7258 H         1 <0>         0.4154
     47 H26         6.3410    2.6231    2.8965 H         1 <0>         0.4247
     48 H27         2.5255   -4.1610   -3.1377 H         1 <0>         0.4349
@<TRIPOS>BOND
     1    1    2 1
     2    1   22 1
     3    1   23 1
     4    1   24 1
     5    2    3 1
     6    2   25 1
     7    2   26 1
     8    3    4 1
     9    3   27 1
    10    3   28 1
    11    4    9 1
    12    4    5 1
    13    4   10 1
    14    5    6 1
    15    5   29 1
    16    5   30 1
    17    6    7 1
    18    6   31 1
    19    6   32 1
    20    7    8 1
    21    7   33 1
    22    7   34 1
    23    8    9 1
    24    8   35 1
    25    8   48 1
    26    9   36 1
    27    9   37 1
    28   10   11 2
    29   10   12 am
    30   12   17 1
    31   12   13 1
    32   13   14 1
    33   13   38 1
    34   13   39 1
    35   14   15 1
    36   14   40 1
    37   14   41 1
    38   15   16 1
    39   15   18 1
    40   16   17 1
    41   16   42 1
    42   16   43 1
    43   17   44 1
    44   17   45 1
    45   18   19 2
    46   18   20 2
    47   18   21 1
    48   21   46 1
    49   21   47 1
@<TRIPOS>MOLECULE
ZINC33518034
   42    43     0     0     0
SMALL
USER_CHARGES
(2S)-2-[4-[(6-methylthieno[2,3-d]pyrimidin-4-yl)amino]butanoylamino]butanoic acid
@<TRIPOS>ATOM
      1 C1         -2.6940    3.6519    1.2227 C.3       1 <0>        -0.1470
      2 C2         -1.4165    2.8114    1.2733 C.3       1 <0>        -0.1132
      3 C3         -1.3295    1.9397    0.0189 C.3       1 <0>         0.1042
      4 H1         -1.4230    2.5484   -0.8926 H         1 <0>         0.0858
      5 C4         -0.0143    1.2041    0.0087 C.2       1 <0>         0.4568
      6 O1          0.0021   -0.0041    0.0020 O.co2     1 <0>        -0.6314
      7 O2          1.1389    1.8910    0.0013 O.co2     1 <0>        -0.7692
      8 N1         -2.4300    0.9727    0.0189 N.am      1 <0>        -0.7093
      9 C5         -2.8746    0.4578   -1.1446 C.2       1 <0>         0.5147
     10 O3         -2.3636    0.7950   -2.1916 O.2       1 <0>        -0.5544
     11 C6         -4.0066   -0.5370   -1.1447 C.3       1 <0>        -0.1329
     12 C7         -4.3135   -0.9602   -2.5825 C.3       1 <0>        -0.1169
     13 C8         -5.4628   -1.9702   -2.5826 C.3       1 <0>         0.1279
     14 N2         -5.7567   -2.3755   -3.9594 N.pl3     1 <0>        -0.7051
     15 C9         -6.7650   -3.2883   -4.2114 C.ar      1 <0>         0.4928
     16 C10        -7.0577   -3.6879   -5.5446 C.ar      1 <0>        -0.2540
     17 C11        -6.4400   -3.2786   -6.7938 C.2       1 <0>        -0.1156
     18 C12        -6.8887   -3.7966   -7.9467 C.2       1 <0>        -0.1436
     19 S1         -8.1972   -4.8919   -7.4299 S.3       1 <0>         0.0897
     20 C13        -8.1060   -4.6242   -5.6794 C.ar      1 <0>         0.1504
     21 N3         -8.7563   -5.0840   -4.6286 N.ar      1 <0>        -0.5340
     22 C14        -8.4386   -4.6752   -3.4158 C.ar      1 <0>         0.3651
     23 N4         -7.4653   -3.8047   -3.2147 N.ar      1 <0>        -0.5915
     24 C15        -6.4028   -3.5187   -9.3459 C.3       1 <0>        -0.0723
     25 H2         -2.7565    4.2786    2.1246 H         1 <0>         0.0495
     26 H3         -3.5689    2.9868    1.1770 H         1 <0>         0.0499
     27 H4         -2.6749    4.2946    0.3302 H         1 <0>         0.0511
     28 H5         -0.5416    3.4765    1.3190 H         1 <0>         0.0847
     29 H6         -1.4355    2.1687    2.1658 H         1 <0>         0.0605
     30 H7         -2.8934    0.6669    0.9685 H         1 <0>         0.4073
     31 H8         -3.7184   -1.4204   -0.5560 H         1 <0>         0.0948
     32 H9         -4.9004   -0.0755   -0.6996 H         1 <0>         0.0897
     33 H10        -4.6017   -0.0768   -3.1711 H         1 <0>         0.0755
     34 H11        -3.4197   -1.4218   -3.0276 H         1 <0>         0.0788
     35 H12        -5.1746   -2.8536   -1.9939 H         1 <0>         0.0712
     36 H13        -6.3566   -1.5087   -2.1375 H         1 <0>         0.0697
     37 H14        -5.1755   -1.9539   -4.7928 H         1 <0>         0.4365
     38 H15        -5.6292   -2.5652   -6.7944 H         1 <0>         0.1358
     39 H16        -8.9834   -5.0634   -2.5680 H         1 <0>         0.2051
     40 H17        -6.9899   -4.1118  -10.0625 H         1 <0>         0.0752
     41 H18        -5.3406   -3.7929   -9.4264 H         1 <0>         0.0840
     42 H19        -6.5233   -2.4485   -9.5701 H         1 <0>         0.0836
@<TRIPOS>BOND
     1    1    2 1
     2    1   25 1
     3    1   26 1
     4    1   27 1
     5    2    3 1
     6    2   28 1
     7    2   29 1
     8    3    4 1
     9    3    5 1
    10    3    8 1
    11    5    6 2
    12    5    7 1
    13    8    9 am
    14    8   30 1
    15    9   10 2
    16    9   11 1
    17   11   12 1
    18   11   31 1
    19   11   32 1
    20   12   13 1
    21   12   33 1
    22   12   34 1
    23   13   14 1
    24   13   35 1
    25   13   36 1
    26   14   15 1
    27   14   37 1
    28   15   23 ar
    29   15   16 ar
    30   16   20 ar
    31   16   17 1
    32   17   18 2
    33   17   38 1
    34   18   19 1
    35   18   24 1
    36   19   20 1
    37   20   21 ar
    38   21   22 ar
    39   22   23 ar
    40   22   39 1
    41   24   40 1
    42   24   41 1
    43   24   42 1
@<TRIPOS>MOLECULE
ZINC37432064
   26    26     0     0     0
SMALL
USER_CHARGES

@<TRIPOS>ATOM
      1 C1         -0.0187    1.5258    0.0104 C.3       1 <0>        -0.1826
      2 C2          0.0021   -0.0041    0.0020 C.3       1 <0>         0.1073
      3 H1          0.5293   -0.3651    0.8851 H         1 <0>         0.0739
      4 C3         -1.4333   -0.5336    0.0129 C.3       1 <0>         0.0808
      5 H2         -1.9435   -0.1821    0.9097 H         1 <0>         0.0993
      6 C4         -1.4129   -2.0405    0.0046 C.2       1 <0>         0.5006
      7 O1         -1.0341   -2.6504    0.9900 O.co2     1 <0>        -0.6962
      8 O2         -1.7752   -2.6496   -0.9875 O.co2     1 <0>        -0.6784
      9 N1         -2.1419   -0.0483   -1.1740 N.am      1 <0>        -0.6692
     10 C5         -3.4850    0.0621   -1.1588 C.2       1 <0>         0.5513
     11 O3         -4.1083   -0.2409   -0.1605 O.2       1 <0>        -0.5058
     12 C6         -4.2011    0.5526   -2.3583 C.ar      1 <0>        -0.0860
     13 C7         -3.5073    0.9029   -3.5234 C.ar      1 <0>        -0.0622
     14 C8         -4.2469    1.3541   -4.6061 C.ar      1 <0>         0.1081
     15 N2         -5.5609    1.4417   -4.5167 N.ar      1 <0>        -0.2006
     16 N3         -6.2026    1.1225   -3.4528 N.ar      1 <0>        -0.2109
     17 C9         -5.5949    0.6766   -2.3689 C.ar      1 <0>         0.1525
     18 Cl1        -6.5194    0.2534   -0.9618 Cl        1 <0>         0.0473
     19 Cl2        -3.4448    1.8042   -6.0784 Cl        1 <0>         0.0080
     20 O4          0.6709   -0.4649   -1.1737 O.3       1 <0>        -0.5542
     21 H3          1.0039    1.9031    0.0027 H         1 <0>         0.0560
     22 H4         -0.5459    1.8868   -0.8726 H         1 <0>         0.0582
     23 H5         -0.5289    1.8773    0.9072 H         1 <0>         0.0653
     24 H6         -1.6443    0.1935   -1.9708 H         1 <0>         0.3961
     25 H7         -2.4315    0.8245   -3.5767 H         1 <0>         0.1730
     26 H8          1.5879   -0.1667   -1.2470 H         1 <0>         0.3683
@<TRIPOS>BOND
     1    1    2 1
     2    1   21 1
     3    1   22 1
     4    1   23 1
     5    2    3 1
     6    2    4 1
     7    2   20 1
     8    4    5 1
     9    4    6 1
    10    4    9 1
    11    6    7 2
    12    6    8 1
    13    9   10 am
    14    9   24 1
    15   10   11 2
    16   10   12 1
    17   12   17 ar
    18   12   13 ar
    19   13   14 ar
    20   13   25 1
    21   14   15 ar
    22   14   19 1
    23   15   16 ar
    24   16   17 ar
    25   17   18 1
    26   20   26 1
@<TRIPOS>MOLECULE
ZINC40696797
   28    28     0     0     0
SMALL
USER_CHARGES

@<TRIPOS>ATOM
      1 C1         -0.0167    1.3815    0.0096 C.ar      1 <0>        -0.1342
      2 C2          1.1679    2.0952    0.0022 C.ar      1 <0>        -0.0713
      3 C3          2.3781    1.4306   -0.0129 C.ar      1 <0>        -0.0607
      4 C4          2.4049    0.0340   -0.0206 C.ar      1 <0>        -0.0632
      5 C5          1.2065   -0.6811   -0.0130 C.ar      1 <0>        -0.1183
      6 C6          0.0021   -0.0041    0.0020 C.ar      1 <0>         0.1058
      7 F1         -1.1593   -0.6942    0.0094 F         1 <0>        -0.1333
      8 C7          3.6970   -0.6833   -0.0373 C.2       1 <0>         0.5454
      9 O1          4.7394   -0.0579   -0.0443 O.2       1 <0>        -0.5046
     10 N1          3.7197   -2.0309   -0.0447 N.am      1 <0>        -0.6876
     11 C8          5.0004   -2.7419   -0.0611 C.3       1 <0>         0.0792
     12 H1          5.7325   -2.1854    0.5240 H         1 <0>         0.0882
     13 C9          4.8178   -4.1357    0.5429 C.3       1 <0>        -0.1090
     14 C10         4.4458   -4.0061    2.0213 C.3       1 <0>         0.0768
     15 O2          4.2752   -5.3079    2.5855 O.3       1 <0>        -0.5749
     16 C11         5.4857   -2.8699   -1.4821 C.2       1 <0>         0.4926
     17 O3          4.8231   -2.4098   -2.3964 O.co2     1 <0>        -0.6813
     18 O4          6.5409   -3.4335   -1.7175 O.co2     1 <0>        -0.6938
     19 Br1         3.9961    2.4093   -0.0237 Br        1 <0>        -0.0011
     20 H2         -0.9605    1.9064    0.0260 H         1 <0>         0.1461
     21 H3          1.1463    3.1749    0.0078 H         1 <0>         0.1472
     22 H4          1.2204   -1.7610   -0.0193 H         1 <0>         0.1465
     23 H5          2.8879   -2.5300   -0.0391 H         1 <0>         0.3881
     24 H6          4.0227   -4.6601    0.0128 H         1 <0>         0.0675
     25 H7          5.7478   -4.6966    0.4501 H         1 <0>         0.0918
     26 H8          5.2409   -3.4817    2.5514 H         1 <0>         0.0449
     27 H9          3.5158   -3.4452    2.1142 H         1 <0>         0.0409
     28 H10         4.0377   -5.3023    3.5229 H         1 <0>         0.3723
@<TRIPOS>BOND
     1    1    6 ar
     2    1    2 ar
     3    1   20 1
     4    2    3 ar
     5    2   21 1
     6    3    4 ar
     7    3   19 1
     8    4    5 ar
     9    4    8 1
    10    5    6 ar
    11    5   22 1
    12    6    7 1
    13    8    9 2
    14    8   10 am
    15   10   11 1
    16   10   23 1
    17   11   12 1
    18   11   13 1
    19   11   16 1
    20   13   14 1
    21   13   24 1
    22   13   25 1
    23   14   15 1
    24   14   26 1
    25   14   27 1
    26   15   28 1
    27   16   17 2
    28   16   18 1
@<TRIPOS>MOLECULE
ZINC49080418
   42    43     0     0     0
SMALL
USER_CHARGES

@<TRIPOS>ATOM
      1 C1         -0.0187    1.5258    0.0104 C.3       1 <0>        -0.1428
      2 C2          0.0021   -0.0041    0.0020 C.3       1 <0>        -0.0927
      3 C3         -1.4333   -0.5336    0.0129 C.3       1 <0>        -0.1093
      4 C4         -1.4126   -2.0635    0.0045 C.3       1 <0>        -0.1056
      5 C5         -0.6726   -2.5703    1.2440 C.3       1 <0>         0.1297
      6 C6          0.7628   -2.0407    1.2331 C.3       1 <0>        -0.1140
      7 C7          0.7421   -0.5109    1.2415 C.3       1 <0>        -0.1049
      8 C8         -0.6521   -4.0772    1.2357 C.2       1 <0>         0.4994
      9 O1         -0.1247   -4.6746    0.3130 O.co2     1 <0>        -0.7036
     10 O2         -1.1630   -4.6988    2.1517 O.co2     1 <0>        -0.6742
     11 N1         -1.3583   -2.0979    2.4493 N.am      1 <0>        -0.7141
     12 C9         -0.8818   -2.4237    3.6672 C.2       1 <0>         0.7155
     13 O3          0.1172   -3.1098    3.7655 O.2       1 <0>        -0.5632
     14 N2         -1.5126   -1.9891    4.7761 N.am      1 <0>        -0.7583
     15 C10        -0.9947   -2.3433    6.0999 C.3       1 <0>         0.1358
     16 C11        -1.8884   -1.7281    7.1786 C.3       1 <0>         0.1254
     17 N3         -1.3705   -2.0823    8.5024 N.pl3     1 <0>        -0.3680
     18 C12        -1.0548   -1.2173    9.4889 C.2       1 <0>         0.0526
     19 C13        -0.6142   -1.9393   10.5451 C.2       1 <0>        -0.2772
     20 C14        -0.6622   -3.2918   10.1920 C.2       1 <0>         0.0414
     21 N4         -1.1212   -3.3791    8.9699 N.2       1 <0>        -0.2853
     22 H1          1.0039    1.9031    0.0027 H         1 <0>         0.0496
     23 H2         -0.5459    1.8868   -0.8726 H         1 <0>         0.0493
     24 H3         -0.5289    1.8773    0.9072 H         1 <0>         0.0494
     25 H4          0.5123   -0.3556   -0.8948 H         1 <0>         0.0684
     26 H5         -1.9435   -0.1821    0.9097 H         1 <0>         0.0545
     27 H6         -1.9605   -0.1726   -0.8702 H         1 <0>         0.0560
     28 H7         -2.4352   -2.4408    0.0122 H         1 <0>         0.0580
     29 H8         -0.9024   -2.4150   -0.8923 H         1 <0>         0.0803
     30 H9          1.2900   -2.4018    2.1162 H         1 <0>         0.0771
     31 H10         1.2730   -2.3923    0.3363 H         1 <0>         0.0669
     32 H11         1.7647   -0.1336    1.2338 H         1 <0>         0.0503
     33 H12         0.2319   -0.1594    2.1383 H         1 <0>         0.0540
     34 H13        -2.1552   -1.5505    2.3709 H         1 <0>         0.3781
     35 H14        -2.3096   -1.4417    4.6976 H         1 <0>         0.3863
     36 H15        -0.9875   -3.4278    6.2090 H         1 <0>         0.0793
     37 H16         0.0203   -1.9606    6.2072 H         1 <0>         0.0645
     38 H17        -1.8956   -0.6436    7.0695 H         1 <0>         0.0995
     39 H18        -2.9034   -2.1107    7.0712 H         1 <0>         0.0908
     40 H19        -1.1385   -0.1415    9.4434 H         1 <0>         0.1726
     41 H20        -0.2833   -1.5414   11.4931 H         1 <0>         0.1461
     42 H21        -0.3749   -4.1212   10.8213 H         1 <0>         0.1825
@<TRIPOS>BOND
     1    1    2 1
     2    1   22 1
     3    1   23 1
     4    1   24 1
     5    2    7 1
     6    2    3 1
     7    2   25 1
     8    3    4 1
     9    3   26 1
    10    3   27 1
    11    4    5 1
    12    4   28 1
    13    4   29 1
    14    5    6 1
    15    5    8 1
    16    5   11 1
    17    6    7 1
    18    6   30 1
    19    6   31 1
    20    7   32 1
    21    7   33 1
    22    8    9 2
    23    8   10 1
    24   11   12 am
    25   11   34 1
    26   12   13 2
    27   12   14 am
    28   14   15 1
    29   14   35 1
    30   15   16 1
    31   15   36 1
    32   15   37 1
    33   16   17 1
    34   16   38 1
    35   16   39 1
    36   17   21 1
    37   17   18 1
    38   18   19 2
    39   18   40 1
    40   19   20 1
    41   19   41 1
    42   20   21 2
    43   20   42 1
@<TRIPOS>MOLECULE
ZINC62036531
   39    39     0     0     0
SMALL
USER_CHARGES

@<TRIPOS>ATOM
      1 C1         -0.0184    1.5028    0.0103 C.3       1 <0>        -0.1071
      2 C2          0.0021   -0.0041    0.0020 C.ar      1 <0>         0.1338
      3 C3          0.0055   -0.6806   -1.2034 C.ar      1 <0>        -0.1749
      4 C4          0.0244   -2.0667   -1.1999 C.ar      1 <0>        -0.0506
      5 C5          0.0391   -2.7236    0.0213 C.ar      1 <0>        -0.1679
      6 C6          0.0345   -1.9800    1.1859 C.ar      1 <0>         0.1263
      7 N1          0.0219   -0.6618    1.1446 N.ar      1 <0>        -0.4864
      8 C7          0.0594   -4.2294    0.0775 C.3       1 <0>         0.1837
      9 N2          1.4470   -4.6990    0.0890 N.am      1 <0>        -0.7401
     10 C8          1.7110   -6.0198    0.1372 C.2       1 <0>         0.6926
     11 O1          0.7979   -6.8212    0.1712 O.2       1 <0>        -0.5287
     12 N3          2.9876   -6.4519    0.1477 N.am      1 <0>        -0.6955
     13 C9          3.2517   -7.7726    0.1960 C.2       1 <0>         0.5120
     14 O2          2.3408   -8.5720    0.2299 O.2       1 <0>        -0.4512
     15 C10         4.6791   -8.2558    0.2077 C.3       1 <0>        -0.1343
     16 C11         4.6996   -9.7845    0.2649 C.3       1 <0>        -0.0536
     17 H1          4.1188  -10.1239    1.1225 H         1 <0>         0.0785
     18 C12         4.0911  -10.3511   -1.0195 C.3       1 <0>        -0.1503
     19 C13         6.1439  -10.2704    0.4025 C.3       1 <0>        -0.1796
     20 C14         6.1556  -11.7666    0.5820 C.2       1 <0>         0.4904
     21 O3          5.1061  -12.3869    0.5984 O.co2     1 <0>        -0.6888
     22 O4          7.2146  -12.3569    0.7109 O.co2     1 <0>        -0.7099
     23 H2          1.0042    1.8801    0.0026 H         1 <0>         0.0800
     24 H3         -0.5455    1.8639   -0.8728 H         1 <0>         0.0758
     25 H4         -0.5286    1.8543    0.9071 H         1 <0>         0.0783
     26 H5         -0.0066   -0.1362   -2.1360 H         1 <0>         0.1370
     27 H6          0.0272   -2.6219   -2.1263 H         1 <0>         0.1381
     28 H7          0.0459   -2.4840    2.1410 H         1 <0>         0.1589
     29 H8         -0.4456   -4.5660    0.9830 H         1 <0>         0.0819
     30 H9         -0.4535   -4.6325   -0.7957 H         1 <0>         0.0800
     31 H10         2.1757   -4.0594    0.0618 H         1 <0>         0.3975
     32 H11         3.7164   -5.8123    0.1206 H         1 <0>         0.4070
     33 H12         5.1840   -7.9192   -0.6977 H         1 <0>         0.0935
     34 H13         5.1919   -7.8526    1.0810 H         1 <0>         0.0936
     35 H14         4.1057  -11.4403   -0.9788 H         1 <0>         0.0859
     36 H15         3.0622  -10.0050   -1.1175 H         1 <0>         0.0531
     37 H16         4.6719  -10.0117   -1.8772 H         1 <0>         0.0292
     38 H17         6.7027  -10.0079   -0.4958 H         1 <0>         0.0564
     39 H18         6.6055   -9.7969    1.2689 H         1 <0>         0.0553
@<TRIPOS>BOND
     1    1    2 1
     2    1   23 1
     3    1   24 1
     4    1   25 1
     5    2    7 ar
     6    2    3 ar
     7    3    4 ar
     8    3   26 1
     9    4    5 ar
    10    4   27 1
    11    5    6 ar
    12    5    8 1
    13    6    7 ar
    14    6   28 1
    15    8    9 1
    16    8   29 1
    17    8   30 1
    18    9   10 am
    19    9   31 1
    20   10   11 2
    21   10   12 am
    22   12   13 am
    23   12   32 1
    24   13   14 2
    25   13   15 1
    26   15   16 1
    27   15   33 1
    28   15   34 1
    29   16   17 1
    30   16   18 1
    31   16   19 1
    32   18   35 1
    33   18   36 1
    34   18   37 1
    35   19   20 1
    36   19   38 1
    37   19   39 1
    38   20   21 2
    39   20   22 1
@<TRIPOS>MOLECULE
ZINC35296146
   35    35     0     0     0
SMALL
USER_CHARGES

@<TRIPOS>ATOM
      1 C1         -0.0184    1.5028    0.0103 C.3       1 <0>        -0.0887
      2 C2          0.0021   -0.0041    0.0020 C.2       1 <0>        -0.1170
      3 C3          0.0082   -0.8036   -1.0737 C.2       1 <0>        -0.0043
      4 O1          0.0282   -2.0885   -0.6799 O.3       1 <0>        -0.1472
      5 C4          0.0359   -2.1800    0.6569 C.2       1 <0>         0.3100
      6 C5          0.0258   -0.8945    1.1732 C.2       1 <0>        -0.1616
      7 C6          0.0340   -0.5133    2.5535 C.1       1 <0>         0.2802
      8 N1          0.0404   -0.2109    3.6485 N.1       1 <0>        -0.4121
      9 N2          0.0559   -3.3525    1.3925 N.am      1 <0>        -0.6267
     10 C7          0.0702   -4.5435    0.7619 C.2       1 <0>         0.5265
     11 O2          0.0655   -4.5880   -0.4501 O.2       1 <0>        -0.4646
     12 C8          0.0920   -5.8199    1.5627 C.3       1 <0>        -0.1186
     13 S1          0.1074   -7.2409    0.4353 S.3       1 <0>        -0.1974
     14 C9          0.1329   -8.6785    1.5413 C.3       1 <0>        -0.1154
     15 C10         0.1476   -9.9622    0.7090 C.3       1 <0>        -0.0269
     16 H1         -0.6974   -9.9585    0.0205 H         1 <0>         0.1445
     17 C11         0.0449  -11.1553    1.6239 C.2       1 <0>         0.4950
     18 O3         -0.9984  -11.3847    2.2117 O.co2     1 <0>        -0.6275
     19 O4          1.0050  -11.8911    1.7763 O.co2     1 <0>        -0.6634
     20 N3          1.4007  -10.0367   -0.0540 N.4       1 <0>        -0.6132
     21 C12        -0.0057   -0.3338   -2.5055 C.3       1 <0>        -0.0740
     22 H2          1.0042    1.8801    0.0026 H         1 <0>         0.0774
     23 H3         -0.5455    1.8639   -0.8728 H         1 <0>         0.0775
     24 H4         -0.5286    1.8543    0.9071 H         1 <0>         0.0698
     25 H5          0.0597   -3.3169    2.3619 H         1 <0>         0.4371
     26 H6          0.9852   -5.8419    2.1871 H         1 <0>         0.1269
     27 H7         -0.7946   -5.8674    2.1950 H         1 <0>         0.1305
     28 H8          1.0252   -8.6403    2.1662 H         1 <0>         0.1028
     29 H9         -0.7546   -8.6658    2.1741 H         1 <0>         0.1299
     30 H10         1.4104  -10.8832   -0.6029 H         1 <0>         0.4357
     31 H11         1.4694   -9.2378   -0.6666 H         1 <0>         0.4189
     32 H12         1.0185   -0.2057   -2.8559 H         1 <0>         0.0866
     33 H13        -0.5121   -1.0734   -3.1257 H         1 <0>         0.0815
     34 H14        -0.5336    0.6176   -2.5706 H         1 <0>         0.0954
     35 H15         2.1829  -10.0401    0.5833 H         1 <0>         0.4324
@<TRIPOS>BOND
     1    1    2 1
     2    1   22 1
     3    1   23 1
     4    1   24 1
     5    2    6 1
     6    2    3 2
     7    3    4 1
     8    3   21 1
     9    4    5 1
    10    5    6 2
    11    5    9 1
    12    6    7 1
    13    7    8 3
    14    9   10 am
    15    9   25 1
    16   10   11 2
    17   10   12 1
    18   12   13 1
    19   12   26 1
    20   12   27 1
    21   13   14 1
    22   14   15 1
    23   14   28 1
    24   14   29 1
    25   15   16 1
    26   15   17 1
    27   15   20 1
    28   17   18 2
    29   17   19 1
    30   20   30 1
    31   20   31 1
    32   20   35 1
    33   21   32 1
    34   21   33 1
    35   21   34 1
@<TRIPOS>MOLECULE
ZINC41071322
   36    37     0     0     0
SMALL
USER_CHARGES

@<TRIPOS>ATOM
      1 C1         -0.0159    1.3185    0.0093 C.ar      1 <0>         0.2947
      2 C2          1.1847    2.0111    0.0015 C.ar      1 <0>        -0.8567
      3 C3          2.3669    1.2876   -0.0136 C.ar      1 <0>         0.2975
      4 N1          2.3145   -0.0341   -0.0202 N.ar      1 <0>        -0.5759
      5 C4          1.1499   -0.6657   -0.0125 C.ar      1 <0>         0.6036
      6 N2          0.0021   -0.0041    0.0020 N.ar      1 <0>        -0.5584
      7 N3          1.1318   -2.0497   -0.0202 N.pl3     1 <0>        -0.5298
      8 N4         -0.0599   -2.7172   -0.0124 N.3       1 <0>        -0.5899
      9 S1          1.2077    3.7729    0.0102 S.o2      1 <0>         2.7099
     10 O1          2.4530    4.1656   -0.5503 O.2       1 <0>        -0.9517
     11 O2         -0.0374    4.1979   -0.5269 O.2       1 <0>        -0.9497
     12 N5          1.2289    4.2545    1.5945 N.pl3     1 <0>        -0.9942
     13 C5         -0.0257    4.4828    2.3243 C.3       1 <0>         0.1174
     14 C6         -0.0045    3.6541    3.6126 C.3       1 <0>        -0.1366
     15 C7          1.2572    3.9912    4.4105 C.3       1 <0>        -0.1090
     16 C8          2.4954    3.6332    3.5855 C.3       1 <0>        -0.1046
     17 H1          2.4721    2.5725    3.3359 H         1 <0>         0.0797
     18 C9          2.5025    4.4558    2.2988 C.3       1 <0>         0.1255
     19 C10         3.7558    3.9393    4.3971 C.3       1 <0>         0.0800
     20 O3          3.8045    3.0849    5.5416 O.3       1 <0>        -0.5725
     21 H2         -0.9546    1.8523    0.0256 H         1 <0>         0.1834
     22 H3          3.3193    1.7969   -0.0203 H         1 <0>         0.1838
     23 H4          1.9655   -2.5455   -0.0312 H         1 <0>         0.4226
     24 H5          0.0850   -3.7158   -0.0195 H         1 <0>         0.3656
     25 H6         -0.6248   -2.4394    0.7761 H         1 <0>         0.3524
     26 H7         -0.1173    5.5404    2.5717 H         1 <0>         0.0799
     27 H8         -0.8692    4.1756    1.7061 H         1 <0>         0.0928
     28 H9         -0.8859    3.8875    4.2099 H         1 <0>         0.0792
     29 H10        -0.0043    2.5931    3.3627 H         1 <0>         0.0642
     30 H11         1.2685    5.0569    4.6388 H         1 <0>         0.0655
     31 H12         1.2625    3.4210    5.3395 H         1 <0>         0.0732
     32 H13         3.3266    4.1308    1.6636 H         1 <0>         0.0937
     33 H14         2.6217    5.5112    2.5440 H         1 <0>         0.0814
     34 H15         4.6368    3.7684    3.7784 H         1 <0>         0.0499
     35 H16         3.7356    4.9798    4.7211 H         1 <0>         0.0507
     36 H17         4.5791    3.2239    6.1035 H         1 <0>         0.3823
@<TRIPOS>BOND
     1    1    6 ar
     2    1    2 ar
     3    1   21 1
     4    2    3 ar
     5    2    9 1
     6    3    4 ar
     7    3   22 1
     8    4    5 ar
     9    5    6 ar
    10    5    7 1
    11    7    8 1
    12    7   23 1
    13    8   24 1
    14    8   25 1
    15    9   10 2
    16    9   11 2
    17    9   12 1
    18   12   18 1
    19   12   13 1
    20   13   14 1
    21   13   26 1
    22   13   27 1
    23   14   15 1
    24   14   28 1
    25   14   29 1
    26   15   16 1
    27   15   30 1
    28   15   31 1
    29   16   17 1
    30   16   18 1
    31   16   19 1
    32   18   32 1
    33   18   33 1
    34   19   20 1
    35   19   34 1
    36   19   35 1
    37   20   36 1
@<TRIPOS>MOLECULE
ZINC48775295
   45    45     0     0     0
SMALL
USER_CHARGES

@<TRIPOS>ATOM
      1 C1         -0.0187    1.5258    0.0104 C.3       1 <0>        -0.1546
      2 C2          0.0021   -0.0041    0.0020 C.3       1 <0>        -0.1155
      3 C3          0.7182   -0.4975   -1.2568 C.3       1 <0>        -0.1453
      4 C4          0.7421   -0.5109    1.2415 C.3       1 <0>         0.1156
      5 N1         -0.0083   -0.1401    2.4439 N.am      1 <0>        -0.5299
      6 C5          0.2414    1.0641    3.0621 C.2       1 <0>         0.3817
      7 C6         -0.4653    1.4013    4.1844 C.2       1 <0>        -0.0642
      8 C7         -1.4307    0.5053    4.6774 C.2       1 <0>         0.5582
      9 O1         -2.0734    0.7840    5.6759 O.2       1 <0>        -0.5234
     10 N2         -1.6417   -0.6628    4.0396 N.am      1 <0>        -0.5547
     11 C8         -0.9416   -0.9762    2.9344 C.2       1 <0>         0.6998
     12 O2         -1.1521   -2.0340    2.3725 O.2       1 <0>        -0.5409
     13 C9         -2.6465   -1.5980    4.5515 C.3       1 <0>         0.0828
     14 N3         -0.2279    2.6323    4.8390 N.pl3     1 <0>        -0.7336
     15 C10        -0.9907    2.9823    6.0398 C.3       1 <0>         0.1568
     16 C11        -0.5431    4.3549    6.5462 C.3       1 <0>         0.0455
     17 O3         -0.8803    5.3523    5.5800 O.3       1 <0>        -0.3757
     18 C12        -0.5035    6.6781    5.9574 C.3       1 <0>         0.0595
     19 C13        -0.9110    7.6575    4.8548 C.3       1 <0>         0.0782
     20 O4         -2.3355    7.6860    4.7456 O.3       1 <0>        -0.5658
     21 N4          1.1927    1.9204    2.5567 N.pl3     1 <0>        -0.8469
     22 H1          1.0039    1.9031    0.0027 H         1 <0>         0.0552
     23 H2         -0.5459    1.8868   -0.8726 H         1 <0>         0.0615
     24 H3         -0.5289    1.8773    0.9072 H         1 <0>         0.0610
     25 H4         -1.0205   -0.3814    0.0098 H         1 <0>         0.0817
     26 H5          1.7408   -0.1202   -1.2645 H         1 <0>         0.0579
     27 H6          0.7330   -1.5874   -1.2628 H         1 <0>         0.0614
     28 H7          0.1910   -0.1364   -2.1398 H         1 <0>         0.0632
     29 H8          0.8346   -1.5958    1.1912 H         1 <0>         0.1072
     30 H9          1.7350   -0.0630    1.2804 H         1 <0>         0.0888
     31 H10        -3.1124   -1.1785    5.4432 H         1 <0>         0.1024
     32 H11        -3.4073   -1.7670    3.7894 H         1 <0>         0.0770
     33 H12        -2.1675   -2.5443    4.8029 H         1 <0>         0.0771
     34 H13         0.4399    3.2448    4.4930 H         1 <0>         0.3926
     35 H14        -2.0534    3.0126    5.7992 H         1 <0>         0.0685
     36 H15        -0.8145    2.2346    6.8130 H         1 <0>         0.0738
     37 H16        -1.0458    4.5765    7.4877 H         1 <0>         0.0631
     38 H17         0.5356    4.3505    6.7025 H         1 <0>         0.0508
     39 H18        -1.0053    6.9478    6.8866 H         1 <0>         0.0566
     40 H19         0.5760    6.7218    6.1014 H         1 <0>         0.0622
     41 H20        -0.5454    8.6544    5.1010 H         1 <0>         0.0601
     42 H21        -0.4803    7.3365    3.9063 H         1 <0>         0.0529
     43 H22        -2.6658    8.2874    4.0642 H         1 <0>         0.3798
     44 H23         1.6911    1.6765    1.7611 H         1 <0>         0.4038
     45 H24         1.3649    2.7679    2.9961 H         1 <0>         0.4138
@<TRIPOS>BOND
     1    1    2 1
     2    1   22 1
     3    1   23 1
     4    1   24 1
     5    2    3 1
     6    2    4 1
     7    2   25 1
     8    3   26 1
     9    3   27 1
    10    3   28 1
    11    4    5 1
    12    4   29 1
    13    4   30 1
    14    5   11 am
    15    5    6 1
    16    6    7 2
    17    6   21 1
    18    7    8 1
    19    7   14 1
    20    8    9 2
    21    8   10 am
    22   10   11 am
    23   10   13 1
    24   11   12 2
    25   13   31 1
    26   13   32 1
    27   13   33 1
    28   14   15 1
    29   14   34 1
    30   15   16 1
    31   15   35 1
    32   15   36 1
    33   16   17 1
    34   16   37 1
    35   16   38 1
    36   17   18 1
    37   18   19 1
    38   18   39 1
    39   18   40 1
    40   19   20 1
    41   19   41 1
    42   19   42 1
    43   20   43 1
    44   21   44 1
    45   21   45 1
@<TRIPOS>MOLECULE
ZINC49547907
   30    31     0     0     0
SMALL
USER_CHARGES

@<TRIPOS>ATOM
      1 C1         -0.0189    1.5414    0.0105 C.3       1 <0>        -0.1136
      2 C2          1.4859    1.8792   -0.0020 C.3       1 <0>        -0.0421
      3 C3          2.1814    0.6765    0.6312 C.2       1 <0>         0.0712
      4 C4          1.3197   -0.3682    0.6152 C.2       1 <0>        -0.2487
      5 S1          2.2731   -1.6623    1.3721 S.3       1 <0>         0.1682
      6 C5          3.6770   -0.7754    1.6468 C.2       1 <0>         0.2658
      7 N1          3.3766    0.4098    1.1735 N.2       1 <0>        -0.5132
      8 N2          4.8627   -1.1958    2.2321 N.am      1 <0>        -0.5976
      9 C6          5.8896   -0.3336    2.3685 C.2       1 <0>         0.5046
     10 O1          5.7772    0.8107    1.9794 O.2       1 <0>        -0.4361
     11 C7          7.1655   -0.7860    2.9983 C.2       1 <0>         0.5199
     12 O2          7.2780   -1.9301    3.3874 O.2       1 <0>        -0.5181
     13 N3          8.1924    0.0762    3.1348 N.am      1 <0>        -0.6862
     14 C8          9.4444   -0.3677    3.7527 C.3       1 <0>         0.1292
     15 C9         10.4227    0.7782    3.7847 C.2       1 <0>         0.2639
     16 S2         10.0043    2.2034    3.1925 S.2       1 <0>        -0.4099
     17 N4         11.6502    0.6017    4.3124 N.pl3     1 <0>        -0.7688
     18 C10         0.0021   -0.0041    0.0020 C.3       1 <0>        -0.0263
     19 H1         -0.4957    1.9197    0.9147 H         1 <0>         0.0802
     20 H2         -0.5128    1.9294   -0.8803 H         1 <0>         0.0905
     21 H3          1.8323    2.0188   -1.0261 H         1 <0>         0.0885
     22 H4          1.6755    2.7770    0.5863 H         1 <0>         0.0836
     23 H5          4.9526   -2.1102    2.5430 H         1 <0>         0.4380
     24 H6          8.1026    0.9906    2.8238 H         1 <0>         0.4322
     25 H7          9.2475   -0.7058    4.7701 H         1 <0>         0.1136
     26 H8          9.8651   -1.1885    3.1720 H         1 <0>         0.1136
     27 H9         11.9039   -0.2628    4.6717 H         1 <0>         0.4027
     28 H10        12.2799    1.3393    4.3330 H         1 <0>         0.4251
     29 H11        -0.8181   -0.3985    0.6018 H         1 <0>         0.0819
     30 H12        -0.0583   -0.3793   -1.0196 H         1 <0>         0.0879
@<TRIPOS>BOND
     1    1   18 1
     2    1    2 1
     3    1   19 1
     4    1   20 1
     5    2    3 1
     6    2   21 1
     7    2   22 1
     8    3    7 1
     9    3    4 2
    10    4    5 1
    11    4   18 1
    12    5    6 1
    13    6    7 2
    14    6    8 1
    15    8    9 am
    16    8   23 1
    17    9   10 2
    18    9   11 1
    19   11   12 2
    20   11   13 am
    21   13   14 1
    22   13   24 1
    23   14   15 1
    24   14   25 1
    25   14   26 1
    26   15   16 2
    27   15   17 1
    28   17   27 1
    29   17   28 1
    30   18   29 1
    31   18   30 1
@<TRIPOS>MOLECULE
ZINC50665792
   41    42     0     0     0
SMALL
USER_CHARGES

@<TRIPOS>ATOM
      1 C1          0.0101   -1.1732    0.0889 C.1       1 <0>        -0.1569
      2 C2         -0.0050    0.0006    0.0838 C.1       1 <0>        -0.2202
      3 C3         -0.0238    1.4725    0.0774 C.3       1 <0>         0.2324
      4 N1          1.3510    1.9785    0.0644 N.am      1 <0>        -0.7239
      5 C4          1.5802    3.3065    0.0567 C.2       1 <0>         0.5131
      6 O1          0.6484    4.0828    0.0606 O.2       1 <0>        -0.5315
      7 C5          2.9945    3.8270    0.0433 C.3       1 <0>         0.1016
      8 N2          2.9757    5.2919    0.0369 N.am      1 <0>        -0.7168
      9 C6          4.1341    5.9806    0.0248 C.2       1 <0>         0.5117
     10 O2          5.1921    5.3877    0.0191 O.2       1 <0>        -0.5257
     11 C7          4.1148    7.4875    0.0182 C.3       1 <0>         0.1021
     12 N3          5.4896    7.9934    0.0052 N.am      1 <0>        -0.7115
     13 C8          5.7189    9.3215   -0.0025 C.2       1 <0>         0.5904
     14 O3          4.7877   10.0989   -0.0926 O.2       1 <0>        -0.5613
     15 C9          7.0955    9.8310    0.0982 C.2       1 <0>        -0.3490
     16 C10         7.3359   11.1849    0.2076 C.2       1 <0>         0.2524
     17 N4          8.5752   11.6848    0.3013 N.pl3     1 <0>        -0.5920
     18 C11         9.7023   10.8920    0.2959 C.ar      1 <0>         0.1757
     19 C12        10.9690   11.4624    0.3960 C.ar      1 <0>        -0.1650
     20 C13        12.0878   10.6591    0.3898 C.ar      1 <0>        -0.0567
     21 C14        11.9702    9.2802    0.2841 C.ar      1 <0>        -0.1487
     22 C15        10.7278    8.6947    0.1836 C.ar      1 <0>        -0.0306
     23 C16         9.5859    9.4959    0.1895 C.ar      1 <0>        -0.1831
     24 C17         8.2385    8.9044    0.0899 C.2       1 <0>         0.4312
     25 O4          8.0788    7.6997    0.0002 O.2       1 <0>        -0.4755
     26 H1          0.0236   -2.2232    0.0934 H         1 <0>         0.2238
     27 H2         -0.5492    1.8253   -0.8100 H         1 <0>         0.0955
     28 H3         -0.5353    1.8332    0.9699 H         1 <0>         0.0955
     29 H4          2.0963    1.3576    0.0613 H         1 <0>         0.4088
     30 H5          3.5199    3.4742    0.9307 H         1 <0>         0.1042
     31 H6          3.5059    3.4663   -0.8492 H         1 <0>         0.1042
     32 H7          2.1295    5.7661    0.0415 H         1 <0>         0.4157
     33 H8          3.5894    7.8402   -0.8692 H         1 <0>         0.1022
     34 H9          3.6034    7.8481    0.9107 H         1 <0>         0.1010
     35 H10         6.2349    7.3726    0.0021 H         1 <0>         0.4253
     36 H11         6.4968   11.8648    0.2179 H         1 <0>         0.1835
     37 H12        11.0739   12.5341    0.4781 H         1 <0>         0.1369
     38 H13        13.0674   11.1071    0.4678 H         1 <0>         0.1362
     39 H14        12.8570    8.6638    0.2803 H         1 <0>         0.1354
     40 H15        10.6381    7.6216    0.1007 H         1 <0>         0.1438
     41 H16         8.6838   12.6458    0.3758 H         1 <0>         0.4260
@<TRIPOS>BOND
     1    1    2 3
     2    1   26 1
     3    2    3 1
     4    3    4 1
     5    3   27 1
     6    3   28 1
     7    4    5 am
     8    4   29 1
     9    5    6 2
    10    5    7 1
    11    7    8 1
    12    7   30 1
    13    7   31 1
    14    8    9 am
    15    8   32 1
    16    9   10 2
    17    9   11 1
    18   11   12 1
    19   11   33 1
    20   11   34 1
    21   12   13 am
    22   12   35 1
    23   13   14 2
    24   13   15 1
    25   15   24 1
    26   15   16 2
    27   16   17 1
    28   16   36 1
    29   17   18 1
    30   17   41 1
    31   18   23 ar
    32   18   19 ar
    33   19   20 ar
    34   19   37 1
    35   20   21 ar
    36   20   38 1
    37   21   22 ar
    38   21   39 1
    39   22   23 ar
    40   22   40 1
    41   23   24 1
    42   24   25 2
@<TRIPOS>MOLECULE
ZINC37542383
   37    38     0     0     0
SMALL
USER_CHARGES

@<TRIPOS>ATOM
      1 C1          0.1565    1.3208    1.1345 C.ar      1 <0>         0.0903
      2 C2          1.3273    2.0311    0.9099 C.ar      1 <0>         0.0510
      3 N1          2.4421    1.3928    0.6162 N.ar      1 <0>        -0.4164
      4 C3          2.4449    0.0649    0.5353 C.ar      1 <0>         0.0153
      5 C4          1.2673   -0.6457    0.7619 C.ar      1 <0>         0.1200
      6 N2          0.1539    0.0021    1.0554 N.ar      1 <0>        -0.4326
      7 C5          3.6960   -0.6565    0.2049 C.2       1 <0>         0.6002
      8 O1          3.7279   -1.8704    0.2517 O.2       1 <0>        -0.5248
      9 N3          4.7988    0.0335   -0.1477 N.am      1 <0>        -0.5758
     10 C6          4.7800    1.4983   -0.1398 C.3       1 <0>         0.0781
     11 C7          5.0345    1.9965    1.2595 C.2       1 <0>         0.5150
     12 O2          5.2140    1.2057    2.1614 O.2       1 <0>        -0.5439
     13 N4          5.0628    3.3207    1.5087 N.am      1 <0>        -0.8492
     14 C8          6.0162   -0.6814   -0.5388 C.3       1 <0>         0.1446
     15 C9          5.7223   -1.5672   -1.7529 C.3       1 <0>        -0.1710
     16 C10         6.9757   -2.3704   -2.1069 C.3       1 <0>         0.0011
     17 N5          7.3603   -3.2116   -0.9672 N.4       1 <0>        -0.5068
     18 C11         7.7128   -2.3660    0.1796 C.3       1 <0>        -0.0005
     19 C12         6.4877   -1.5627    0.6215 C.3       1 <0>        -0.1714
     20 H1         -0.7542    1.8473    1.3790 H         1 <0>         0.1835
     21 H2          1.3248    3.1091    0.9757 H         1 <0>         0.1834
     22 H3          1.2649   -1.7238    0.6972 H         1 <0>         0.1832
     23 H4          5.5557    1.8752   -0.8064 H         1 <0>         0.1058
     24 H5          3.8062    1.8510   -0.4795 H         1 <0>         0.1500
     25 H6          4.9193    3.9531    0.7873 H         1 <0>         0.4039
     26 H7          5.2266    3.6413    2.4094 H         1 <0>         0.4062
     27 H8          6.7959    0.0374   -0.7908 H         1 <0>         0.1057
     28 H9          4.9069   -2.2507   -1.5160 H         1 <0>         0.1105
     29 H10         5.4395   -0.9419   -2.5998 H         1 <0>         0.1137
     30 H11         6.7700   -3.0020   -2.9711 H         1 <0>         0.1372
     31 H12         7.7903   -1.6860   -2.3439 H         1 <0>         0.1311
     32 H13         6.5879   -3.8109   -0.7171 H         1 <0>         0.4319
     33 H14         8.0512   -2.9944    1.0034 H         1 <0>         0.1366
     34 H15         8.5117   -1.6817   -0.1062 H         1 <0>         0.1301
     35 H16         6.7520   -0.9341    1.4719 H         1 <0>         0.1192
     36 H17         5.6882   -2.2460    0.9077 H         1 <0>         0.1127
     37 H18         8.1547   -3.7791   -1.2222 H         1 <0>         0.4322
@<TRIPOS>BOND
     1    1    6 ar
     2    1    2 ar
     3    1   20 1
     4    2    3 ar
     5    2   21 1
     6    3    4 ar
     7    4    5 ar
     8    4    7 1
     9    5    6 ar
    10    5   22 1
    11    7    8 2
    12    7    9 am
    13    9   10 1
    14    9   14 1
    15   10   11 1
    16   10   23 1
    17   10   24 1
    18   11   12 2
    19   11   13 am
    20   13   25 1
    21   13   26 1
    22   14   19 1
    23   14   15 1
    24   14   27 1
    25   15   16 1
    26   15   28 1
    27   15   29 1
    28   16   17 1
    29   16   30 1
    30   16   31 1
    31   17   18 1
    32   17   32 1
    33   17   37 1
    34   18   19 1
    35   18   33 1
    36   18   34 1
    37   19   35 1
    38   19   36 1
@<TRIPOS>MOLECULE
ZINC40166371
   41    41     0     0     0
SMALL
USER_CHARGES

@<TRIPOS>ATOM
      1 C1         -0.0188    1.5335    0.0105 C.3       1 <0>        -0.1219
      2 C2          1.4526    2.0379   -0.0009 C.3       1 <0>        -0.5610
      3 S1          2.2278    0.8424    1.1674 S.o2      1 <0>         2.3804
      4 O1          3.4624    0.3978    0.6222 O.2       1 <0>        -0.9284
      5 O2          2.1993    1.3918    2.4776 O.2       1 <0>        -0.9223
      6 C3          1.0012   -0.5241    1.0635 C.3       1 <0>        -0.5841
      7 C4          0.0021   -0.0041    0.0020 C.3       1 <0>        -0.6057
      8 H1          0.3055   -0.3564   -0.9838 H         1 <0>         0.1633
      9 S2         -1.6578   -0.6309    0.3792 S.o2      1 <0>         2.6258
     10 O3         -2.0475   -0.2295    1.6855 O.2       1 <0>        -0.9377
     11 O4         -2.5223   -0.4257   -0.7297 O.2       1 <0>        -0.9408
     12 N1         -1.4799   -2.2744    0.4778 N.pl3     1 <0>        -1.1144
     13 C5         -0.6570   -2.8598    1.5391 C.3       1 <0>         0.1006
     14 C6         -0.9492   -4.3580    1.6433 C.3       1 <0>        -0.1300
     15 C7         -0.0899   -4.9693    2.7518 C.3       1 <0>        -0.1234
     16 C8         -0.3820   -6.4676    2.8559 C.3       1 <0>        -0.1190
     17 C9          0.4773   -7.0789    3.9644 C.3       1 <0>        -0.1539
     18 C10         0.1851   -8.5771    4.0686 C.3       1 <0>        -0.0101
     19 N2          1.0102   -9.1641    5.1328 N.4       1 <0>        -0.6388
     20 H2         -0.5232    1.8899    0.9086 H         1 <0>         0.1057
     21 H3         -0.5402    1.8994   -0.8740 H         1 <0>         0.1217
     22 H4          1.8896    1.9563   -0.9961 H         1 <0>         0.1470
     23 H5          1.5223    3.0584    0.3755 H         1 <0>         0.1528
     24 H6          1.4768   -1.4457    0.7279 H         1 <0>         0.1595
     25 H7          0.5045   -0.6713    2.0225 H         1 <0>         0.1499
     26 H8         -1.9204   -2.8495   -0.1673 H         1 <0>         0.4223
     27 H9          0.3972   -2.7106    1.3057 H         1 <0>         0.0731
     28 H10        -0.8908   -2.3772    2.4881 H         1 <0>         0.0850
     29 H11        -2.0034   -4.5072    1.8768 H         1 <0>         0.0769
     30 H12        -0.7154   -4.8406    0.6943 H         1 <0>         0.0750
     31 H13         0.9643   -4.8201    2.5183 H         1 <0>         0.0717
     32 H14        -0.3237   -4.4867    3.7007 H         1 <0>         0.0733
     33 H15        -1.4362   -6.6168    3.0894 H         1 <0>         0.0764
     34 H16        -0.1482   -6.9502    1.9070 H         1 <0>         0.0758
     35 H17         1.5315   -6.9297    3.7309 H         1 <0>         0.0886
     36 H18         0.2435   -6.5963    4.9133 H         1 <0>         0.0890
     37 H19        -0.8691   -8.7263    4.3020 H         1 <0>         0.1338
     38 H20         0.4190   -9.0597    3.1196 H         1 <0>         0.1335
     39 H21         1.9861   -9.0260    4.9167 H         1 <0>         0.4356
     40 H22         0.7938   -8.7173    6.0113 H         1 <0>         0.4358
     41 H23         0.8175  -10.1521    5.2015 H         1 <0>         0.4388
@<TRIPOS>BOND
     1    1    7 1
     2    1    2 1
     3    1   20 1
     4    1   21 1
     5    2    3 1
     6    2   22 1
     7    2   23 1
     8    3    4 2
     9    3    5 2
    10    3    6 1
    11    6    7 1
    12    6   24 1
    13    6   25 1
    14    7    8 1
    15    7    9 1
    16    9   10 2
    17    9   11 2
    18    9   12 1
    19   12   13 1
    20   12   26 1
    21   13   14 1
    22   13   27 1
    23   13   28 1
    24   14   15 1
    25   14   29 1
    26   14   30 1
    27   15   16 1
    28   15   31 1
    29   15   32 1
    30   16   17 1
    31   16   33 1
    32   16   34 1
    33   17   18 1
    34   17   35 1
    35   17   36 1
    36   18   19 1
    37   18   37 1
    38   18   38 1
    39   19   39 1
    40   19   40 1
    41   19   41 1
@<TRIPOS>MOLECULE
ZINC49079330
   42    43     0     0     0
SMALL
USER_CHARGES

@<TRIPOS>ATOM
      1 C1         -0.0187    1.5258    0.0104 C.3       1 <0>        -0.1745
      2 C2          0.0021   -0.0041    0.0020 C.3       1 <0>         0.1316
      3 H1          0.5123   -0.3556   -0.8948 H         1 <0>         0.1098
      4 C3         -1.4333   -0.5336    0.0129 C.3       1 <0>         0.1326
      5 N1         -1.4164   -1.9929   -0.1155 N.pl3     1 <0>        -0.3796
      6 C4         -2.0017   -2.8707    0.7259 C.2       1 <0>         0.0482
      7 C5         -1.7555   -4.1166    0.2588 C.2       1 <0>        -0.2682
      8 C6         -0.9937   -3.9961   -0.9080 C.2       1 <0>         0.0505
      9 N2         -0.7950   -2.7232   -1.1367 N.2       1 <0>        -0.2870
     10 N3          0.7106   -0.4894    1.1889 N.pl3     1 <0>        -1.1062
     11 S1          2.3218   -0.8609    1.0971 S.o2      1 <0>         2.6864
     12 O1          2.7188   -1.2710    2.3985 O.2       1 <0>        -0.9503
     13 O2          2.4829   -1.6905   -0.0453 O.2       1 <0>        -0.9288
     14 C7          3.1835    0.6378    0.7566 C.ar      1 <0>        -0.6660
     15 C8          3.4032    1.0270   -0.5517 C.ar      1 <0>         0.0072
     16 C9          4.0791    2.2026   -0.8188 C.ar      1 <0>        -0.1201
     17 C10         4.5351    2.9897    0.2224 C.ar      1 <0>        -0.0685
     18 C11         4.3147    2.6011    1.5303 C.ar      1 <0>        -0.1685
     19 C12         3.6348    1.4273    1.7975 C.ar      1 <0>         0.0111
     20 C13         4.8122    3.4588    2.6652 C.3       1 <0>         0.0822
     21 H2          4.8747    2.8593    3.5734 H         1 <0>         0.1530
     22 C14         3.8436    4.6221    2.8878 C.3       1 <0>        -0.1814
     23 N4          6.1427    3.9859    2.3338 N.4       1 <0>        -0.6371
     24 H3          1.0039    1.9031    0.0027 H         1 <0>         0.0611
     25 H4         -0.5459    1.8868   -0.8726 H         1 <0>         0.0806
     26 H5         -0.5289    1.8773    0.9072 H         1 <0>         0.0709
     27 H6         -1.9156   -0.2570    0.9504 H         1 <0>         0.1043
     28 H7         -1.9862   -0.1019   -0.8214 H         1 <0>         0.1020
     29 H8         -2.5653   -2.6232    1.6133 H         1 <0>         0.1729
     30 H9         -2.0880   -5.0408    0.7079 H         1 <0>         0.1491
     31 H10        -0.6356   -4.8125   -1.5177 H         1 <0>         0.1844
     32 H11         0.2360   -0.5931    2.0285 H         1 <0>         0.4210
     33 H12         3.0470    0.4122   -1.3650 H         1 <0>         0.1539
     34 H13         4.2513    2.5062   -1.8408 H         1 <0>         0.1487
     35 H14         5.0639    3.9080    0.0137 H         1 <0>         0.1303
     36 H15         3.4593    1.1256    2.8195 H         1 <0>         0.1511
     37 H16         3.7811    5.2217    1.9797 H         1 <0>         0.0836
     38 H17         2.8564    4.2310    3.1337 H         1 <0>         0.1087
     39 H18         4.2034    5.2425    3.7087 H         1 <0>         0.0897
     40 H19         6.0848    4.5409    1.4932 H         1 <0>         0.4308
     41 H20         6.4758    4.5602    3.0937 H         1 <0>         0.4408
     42 H21         6.7814    3.2188    2.1870 H         1 <0>         0.4396
@<TRIPOS>BOND
     1    1    2 1
     2    1   24 1
     3    1   25 1
     4    1   26 1
     5    2    3 1
     6    2    4 1
     7    2   10 1
     8    4    5 1
     9    4   27 1
    10    4   28 1
    11    5    9 1
    12    5    6 1
    13    6    7 2
    14    6   29 1
    15    7    8 1
    16    7   30 1
    17    8    9 2
    18    8   31 1
    19   10   11 1
    20   10   32 1
    21   11   12 2
    22   11   13 2
    23   11   14 1
    24   14   19 ar
    25   14   15 ar
    26   15   16 ar
    27   15   33 1
    28   16   17 ar
    29   16   34 1
    30   17   18 ar
    31   17   35 1
    32   18   19 ar
    33   18   20 1
    34   19   36 1
    35   20   21 1
    36   20   22 1
    37   20   23 1
    38   22   37 1
    39   22   38 1
    40   22   39 1
    41   23   40 1
    42   23   41 1
    43   23   42 1
@<TRIPOS>MOLECULE
ZINC57840376
   41    42     0     0     0
SMALL
USER_CHARGES

@<TRIPOS>ATOM
      1 C1         -0.0187    1.5258    0.0104 C.3       1 <0>        -0.1488
      2 C2          0.0021   -0.0041    0.0020 C.3       1 <0>         0.1764
      3 C3         -1.4025   -0.5572    0.1392 C.2       1 <0>         0.5395
      4 O1         -2.3322   -0.3918   -0.6211 O.2       1 <0>        -0.4437
      5 N1         -1.4027   -1.2718    1.2819 N.am      1 <0>        -0.5773
      6 C4         -0.2059   -1.2473    1.8794 C.2       1 <0>         0.7049
      7 O2          0.0398   -1.8188    2.9235 O.2       1 <0>        -0.5322
      8 N2          0.6953   -0.5196    1.1952 N.am      1 <0>        -0.7080
      9 C5         -2.5694   -1.9865    1.8054 C.3       1 <0>         0.0930
     10 C6         -2.5848   -3.4126    1.2515 C.3       1 <0>        -0.0293
     11 N3         -3.7548   -4.1293    1.7765 N.4       1 <0>        -0.6296
     12 C7          0.6570   -0.5170   -1.2546 C.ar      1 <0>        -0.1083
     13 C8         -0.1090   -0.7715   -2.3771 C.ar      1 <0>        -0.1054
     14 C9          0.4870   -1.2420   -3.5322 C.ar      1 <0>        -0.1691
     15 C10         1.8551   -1.4592   -3.5670 C.ar      1 <0>         0.1189
     16 C11         2.6261   -1.2026   -2.4373 C.ar      1 <0>         0.1075
     17 C12         2.0231   -0.7265   -1.2842 C.ar      1 <0>        -0.1506
     18 O3          3.9692   -1.4142   -2.4665 O.3       1 <0>        -0.2998
     19 C13         4.6970   -1.1291   -1.2702 C.3       1 <0>         0.0231
     20 O4          2.4429   -1.9225   -4.7024 O.3       1 <0>        -0.3006
     21 C14         1.5894   -2.1641   -5.8227 C.3       1 <0>         0.0230
     22 H1          1.0039    1.9031    0.0027 H         1 <0>         0.0891
     23 H2         -0.5459    1.8868   -0.8726 H         1 <0>         0.0926
     24 H3         -0.5289    1.8773    0.9072 H         1 <0>         0.0744
     25 H4          1.6211   -0.3648    1.4398 H         1 <0>         0.4463
     26 H5         -2.5168   -2.0200    2.8937 H         1 <0>         0.1228
     27 H6         -3.4792   -1.4688    1.5014 H         1 <0>         0.1200
     28 H7         -2.6374   -3.3792    0.1633 H         1 <0>         0.1400
     29 H8         -1.6751   -3.9303    1.5555 H         1 <0>         0.1427
     30 H9         -3.7061   -4.1602    2.7838 H         1 <0>         0.4396
     31 H10        -4.5969   -3.6500    1.4950 H         1 <0>         0.4386
     32 H11        -1.1754   -0.6026   -2.3513 H         1 <0>         0.1422
     33 H12        -0.1137   -1.4407   -4.4075 H         1 <0>         0.1432
     34 H13         2.6198   -0.5230   -0.4073 H         1 <0>         0.1358
     35 H14         4.5717   -0.0779   -1.0105 H         1 <0>         0.0578
     36 H15         4.3200   -1.7514   -0.4586 H         1 <0>         0.0550
     37 H16         5.7544   -1.3405   -1.4292 H         1 <0>         0.1076
     38 H17         0.8409   -2.9099   -5.5551 H         1 <0>         0.0566
     39 H18         1.0925   -1.2367   -6.1076 H         1 <0>         0.0598
     40 H19         2.1837   -2.5299   -6.6601 H         1 <0>         0.1073
     41 H20        -3.7649   -5.0697    1.4112 H         1 <0>         0.4450
@<TRIPOS>BOND
     1    1    2 1
     2    1   22 1
     3    1   23 1
     4    1   24 1
     5    2    8 1
     6    2    3 1
     7    2   12 1
     8    3    4 2
     9    3    5 am
    10    5    6 am
    11    5    9 1
    12    6    7 2
    13    6    8 am
    14    8   25 1
    15    9   10 1
    16    9   26 1
    17    9   27 1
    18   10   11 1
    19   10   28 1
    20   10   29 1
    21   11   30 1
    22   11   31 1
    23   11   41 1
    24   12   17 ar
    25   12   13 ar
    26   13   14 ar
    27   13   32 1
    28   14   15 ar
    29   14   33 1
    30   15   16 ar
    31   15   20 1
    32   16   17 ar
    33   16   18 1
    34   17   34 1
    35   18   19 1
    36   19   35 1
    37   19   36 1
    38   19   37 1
    39   20   21 1
    40   21   38 1
    41   21   39 1
    42   21   40 1
@<TRIPOS>MOLECULE
ZINC62562057
   38    39     0     0     0
SMALL
USER_CHARGES

@<TRIPOS>ATOM
      1 C1         -0.0187    1.5258    0.0104 C.3       1 <0>        -0.1761
      2 C2          0.0021   -0.0041    0.0020 C.3       1 <0>         0.0777
      3 H1         -1.0207   -0.3809    0.0098 H         1 <0>         0.1616
      4 C3          0.7064   -0.4896   -1.2393 C.2       1 <0>         0.4905
      5 O1          0.0736   -0.7175   -2.2488 O.2       1 <0>        -0.4884
      6 N1          2.0451   -0.6693   -1.2230 N.am      1 <0>        -0.5554
      7 C4          2.7478   -0.4329   -0.0329 C.ar      1 <0>         0.0836
      8 C5          4.1256   -0.2913   -0.0407 C.ar      1 <0>        -0.0251
      9 C6          4.7997   -0.0596    1.1443 C.ar      1 <0>        -0.6814
     10 C7          4.1022    0.0315    2.3349 C.ar      1 <0>        -0.0168
     11 C8          2.7262   -0.1082    2.3491 C.ar      1 <0>        -0.1282
     12 C9          2.0447   -0.3402    1.1672 C.ar      1 <0>         0.1465
     13 O2          0.6924   -0.4771    1.1615 O.3       1 <0>        -0.2910
     14 S1          6.5524    0.1208    1.1371 S.o2      1 <0>         2.6993
     15 O3          7.0004   -0.2131    2.4436 O.2       1 <0>        -0.9408
     16 O4          7.0247   -0.5480   -0.0244 O.2       1 <0>        -0.9346
     17 N2          6.8781    1.7301    0.9218 N.pl3     1 <0>        -1.1169
     18 C10         6.4853    2.7004    1.9468 C.3       1 <0>         0.0864
     19 C11         7.2109    4.0247    1.7002 C.3       1 <0>        -0.0162
     20 N3          6.8170    4.9976    2.7279 N.4       1 <0>        -0.6345
     21 C12         2.7519   -1.1051   -2.4299 C.3       1 <0>         0.0656
     22 H2          1.0039    1.9031    0.0027 H         1 <0>         0.0618
     23 H3         -0.5459    1.8868   -0.8726 H         1 <0>         0.0901
     24 H4         -0.5289    1.8773    0.9072 H         1 <0>         0.0913
     25 H5          4.6720   -0.3621   -0.9696 H         1 <0>         0.1524
     26 H6          4.6341    0.2121    3.2573 H         1 <0>         0.1517
     27 H7          2.1848   -0.0367    3.2808 H         1 <0>         0.1544
     28 H8          7.3290    2.0303    0.1172 H         1 <0>         0.4276
     29 H9          5.4083    2.8621    1.9003 H         1 <0>         0.0906
     30 H10         6.7530    2.3173    2.9314 H         1 <0>         0.1059
     31 H11         8.2878    3.8630    1.7466 H         1 <0>         0.1457
     32 H12         6.9431    4.4078    0.7155 H         1 <0>         0.1430
     33 H13         5.8201    5.1473    2.6849 H         1 <0>         0.4381
     34 H14         7.0649    4.6430    3.6394 H         1 <0>         0.4400
     35 H15         2.0372   -1.2346   -3.2427 H         1 <0>         0.1031
     36 H16         3.4891   -0.3530   -2.7108 H         1 <0>         0.0745
     37 H17         3.2551   -2.0520   -2.2344 H         1 <0>         0.0789
     38 H18         7.2955    5.8709    2.5652 H         1 <0>         0.4451
@<TRIPOS>BOND
     1    1    2 1
     2    1   22 1
     3    1   23 1
     4    1   24 1
     5    2    3 1
     6    2   13 1
     7    2    4 1
     8    4    5 2
     9    4    6 am
    10    6    7 1
    11    6   21 1
    12    7   12 ar
    13    7    8 ar
    14    8    9 ar
    15    8   25 1
    16    9   10 ar
    17    9   14 1
    18   10   11 ar
    19   10   26 1
    20   11   12 ar
    21   11   27 1
    22   12   13 1
    23   14   15 2
    24   14   16 2
    25   14   17 1
    26   17   18 1
    27   17   28 1
    28   18   19 1
    29   18   29 1
    30   18   30 1
    31   19   20 1
    32   19   31 1
    33   19   32 1
    34   20   33 1
    35   20   34 1
    36   20   38 1
    37   21   35 1
    38   21   36 1
    39   21   37 1
@<TRIPOS>MOLECULE
ZINC19423080
   28    29     0     0     0
SMALL
USER_CHARGES
2-(pyrimidin-2-ylsulfamoyl)benzenecarbothioamide
@<TRIPOS>ATOM
      1 C1          5.4895    2.8861    3.0120 C.ar      1 <0>        -0.0887
      2 C2          6.4699    1.9596    2.7027 C.ar      1 <0>        -0.1330
      3 C3          6.3005    1.0931    1.6377 C.ar      1 <0>        -0.0102
      4 C4          5.1560    1.1543    0.8698 C.ar      1 <0>        -0.6060
      5 C5          4.1625    2.0863    1.1764 C.ar      1 <0>        -0.0024
      6 C6          4.3378    2.9545    2.2563 C.ar      1 <0>        -0.1138
      7 C7          2.9322    2.1533    0.3633 C.2       1 <0>         0.3735
      8 S1          2.8251    3.2613   -0.9374 S.2       1 <0>        -0.5195
      9 N1          1.8933    1.3422    0.6448 N.pl3     1 <0>        -0.7537
     10 S2          4.9452    0.0542   -0.4904 S.o2      1 <0>         2.6006
     11 O1          3.6522   -0.5189   -0.3527 O.2       1 <0>        -0.9948
     12 O2          6.1248   -0.7350   -0.5609 O.2       1 <0>        -1.0212
     13 N2          4.9101    0.9766   -1.8653 N.2       1 <0>        -0.9747
     14 C8          6.0326    1.6893   -2.2494 C.ar      1 <0>         0.5916
     15 N3          6.1043    2.1676   -3.4829 N.ar      1 <0>        -0.5430
     16 C9          7.1630    2.8529   -3.8819 C.ar      1 <0>         0.1759
     17 C10         8.2040    3.0678   -2.9923 C.ar      1 <0>        -0.3392
     18 C11         8.0963    2.5534   -1.7098 C.ar      1 <0>         0.1830
     19 N4          7.0103    1.8766   -1.3750 N.ar      1 <0>        -0.6083
     20 H1          5.6264    3.5568    3.8474 H         1 <0>         0.1252
     21 H2          7.3696    1.9101    3.2981 H         1 <0>         0.1249
     22 H3          7.0676    0.3695    1.4045 H         1 <0>         0.1393
     23 H4          3.5732    3.6775    2.4992 H         1 <0>         0.1242
     24 H5          0.9766    1.3922    0.0389 H         1 <0>         0.4424
     25 H6          1.9621    0.6302    1.4805 H         1 <0>         0.4213
     26 H7          7.2158    3.2401   -4.8888 H         1 <0>         0.1456
     27 H8          9.0818    3.6201   -3.2934 H         1 <0>         0.1205
     28 H9          8.8899    2.7028   -0.9926 H         1 <0>         0.1405
@<TRIPOS>BOND
     1    1    6 ar
     2    1    2 ar
     3    1   20 1
     4    2    3 ar
     5    2   21 1
     6    3    4 ar
     7    3   22 1
     8    4    5 ar
     9    4   10 1
    10    5    6 ar
    11    5    7 1
    12    6   23 1
    13    7    8 2
    14    7    9 1
    15    9   24 1
    16    9   25 1
    17   10   11 2
    18   10   12 2
    19   10   13 1
    20   13   14 1
    21   14   19 ar
    22   14   15 ar
    23   15   16 ar
    24   16   17 ar
    25   16   26 1
    26   17   18 ar
    27   17   27 1
    28   18   19 ar
    29   18   28 1
@<TRIPOS>MOLECULE
ZINC37064005
   27    28     0     0     0
SMALL
USER_CHARGES

@<TRIPOS>ATOM
      1 C1         -0.0173    1.4248    0.0099 C.3       1 <0>         0.0279
      2 O1          0.0021   -0.0041    0.0020 O.3       1 <0>        -0.2899
      3 C2         -1.2002   -0.6374    0.0101 C.ar      1 <0>         0.2712
      4 C3         -2.3731    0.1013    0.0195 C.ar      1 <0>        -0.3112
      5 C4         -3.5994   -0.5487    0.0278 C.ar      1 <0>         0.2856
      6 C5         -3.6475   -1.9376    0.0266 C.ar      1 <0>        -0.2540
      7 C6         -2.4765   -2.6699    0.0172 C.ar      1 <0>         0.0528
      8 C7         -1.2545   -2.0241    0.0032 C.ar      1 <0>        -0.7136
      9 S1          0.2365   -2.9628   -0.0162 S.o2      1 <0>         2.6557
     10 O2          1.0673   -2.4265    1.0043 O.2       1 <0>        -0.9966
     11 O3         -0.1454   -4.3311   -0.0469 O.2       1 <0>        -1.0117
     12 N1          0.9933   -2.6501   -1.4556 N.2       1 <0>        -1.0112
     13 C8          2.2043   -3.2593   -1.7490 C.2       1 <0>         0.4347
     14 N2          2.9228   -4.1174   -1.0371 N.2       1 <0>        -0.4423
     15 N3          4.0174   -4.5795   -1.4602 N.2       1 <0>        -0.2322
     16 C9          4.5164   -4.2414   -2.6317 C.2       1 <0>        -0.0641
     17 S2          3.2427   -3.1190   -3.2010 S.3       1 <0>        -0.1572
     18 N4         -4.7834    0.1920    0.0378 N.pl3     1 <0>        -0.8715
     19 H1          1.0053    1.8021    0.0021 H         1 <0>         0.1030
     20 H2         -0.5445    1.7859   -0.8732 H         1 <0>         0.0563
     21 H3         -0.5275    1.7763    0.9067 H         1 <0>         0.0546
     22 H4         -2.3328    1.1805    0.0208 H         1 <0>         0.1301
     23 H5         -4.6010   -2.4447    0.0334 H         1 <0>         0.1264
     24 H6         -2.5157   -3.7492    0.0166 H         1 <0>         0.1461
     25 H7          5.4306   -4.5553   -3.1134 H         1 <0>         0.2130
     26 H8         -4.7491    1.1614    0.0390 H         1 <0>         0.3979
     27 H9         -5.6401   -0.2630    0.0436 H         1 <0>         0.4000
@<TRIPOS>BOND
     1    1    2 1
     2    1   19 1
     3    1   20 1
     4    1   21 1
     5    2    3 1
     6    3    8 ar
     7    3    4 ar
     8    4    5 ar
     9    4   22 1
    10    5    6 ar
    11    5   18 1
    12    6    7 ar
    13    6   23 1
    14    7    8 ar
    15    7   24 1
    16    8    9 1
    17    9   10 2
    18    9   11 2
    19    9   12 1
    20   12   13 1
    21   13   17 1
    22   13   14 2
    23   14   15 1
    24   15   16 2
    25   16   17 1
    26   16   25 1
    27   18   26 1
    28   18   27 1
@<TRIPOS>MOLECULE
ZINC40429065
   43    44     0     0     0
SMALL
USER_CHARGES

@<TRIPOS>ATOM
      1 C1         -0.0562    1.4036    0.0033 C.3       1 <0>        -0.1054
      2 C2          1.3493    2.0386   -0.0100 C.3       1 <0>        -0.1203
      3 C3          1.9008    2.0079    1.3897 C.3       1 <0>        -0.1167
      4 C4          2.7764    0.7675    1.6512 C.3       1 <0>        -0.1054
      5 C5          2.1825   -0.5206    1.0496 C.3       1 <0>         0.1295
      6 C6          0.6946   -0.6177    1.2517 C.3       1 <0>        -0.0918
      7 C7         -0.0080   -0.0510    0.0009 C.3       1 <0>        -0.1217
      8 C8          2.8414   -1.7106    1.6985 C.2       1 <0>         0.4988
      9 O1          2.7561   -1.8726    2.9038 O.co2     1 <0>        -0.7066
     10 O2          3.4597   -2.5113    1.0180 O.co2     1 <0>        -0.6719
     11 N1          2.4686   -0.5485   -0.3869 N.am      1 <0>        -0.7192
     12 C9          2.1154   -1.6204   -1.1236 C.2       1 <0>         0.7145
     13 O3          1.5594   -2.5642   -0.5961 O.2       1 <0>        -0.5647
     14 N2          2.3786   -1.6461   -2.4452 N.am      1 <0>        -0.7554
     15 C10         1.9947   -2.8112   -3.2460 C.3       1 <0>         0.1490
     16 C11         2.4046   -2.5862   -4.7029 C.3       1 <0>         0.0694
     17 H1          3.4814   -2.4324   -4.7728 H         1 <0>         0.0766
     18 C12         1.9759   -3.7933   -5.5747 C.3       1 <0>        -0.1481
     19 C13         1.8733   -3.1252   -6.9730 C.3       1 <0>        -0.1552
     20 C14         1.3741   -1.7070   -6.6227 C.3       1 <0>         0.0503
     21 O4          1.7032   -1.4581   -5.2496 O.3       1 <0>        -0.3751
     22 H2         -0.5861    1.7378    0.8953 H         1 <0>         0.0517
     23 H3         -0.6038    1.7400   -0.8771 H         1 <0>         0.0464
     24 H4          2.0016    1.4703   -0.6731 H         1 <0>         0.0692
     25 H5          1.2817    3.0705   -0.3543 H         1 <0>         0.0527
     26 H6          2.5004    2.9035    1.5523 H         1 <0>         0.0518
     27 H7          1.0705    2.0087    2.0960 H         1 <0>         0.0594
     28 H8          3.7624    0.9356    1.2181 H         1 <0>         0.0539
     29 H9          2.8857    0.6349    2.7276 H         1 <0>         0.0798
     30 H10         0.4112   -1.6612    1.3895 H         1 <0>         0.0673
     31 H11         0.4055   -0.0380    2.1283 H         1 <0>         0.0571
     32 H12        -1.0263   -0.4379   -0.0378 H         1 <0>         0.0426
     33 H13         0.5286   -0.3850   -0.8872 H         1 <0>         0.0718
     34 H14         2.9122    0.2044   -0.8078 H         1 <0>         0.3777
     35 H15         2.8222   -0.8931   -2.8661 H         1 <0>         0.3885
     36 H16         2.4966   -3.6986   -2.8603 H         1 <0>         0.0753
     37 H17         0.9152   -2.9510   -3.1898 H         1 <0>         0.0644
     38 H18         2.7371   -4.5734   -5.5670 H         1 <0>         0.0866
     39 H19         1.0106   -4.1857   -5.2550 H         1 <0>         0.0836
     40 H20         2.8495   -3.0846   -7.4561 H         1 <0>         0.0757
     41 H21         1.1504   -3.6471   -7.6001 H         1 <0>         0.0812
     42 H22         1.8689   -0.9732   -7.2589 H         1 <0>         0.0655
     43 H23         0.2944   -1.6502   -6.7614 H         1 <0>         0.0674
@<TRIPOS>BOND
     1    1    7 1
     2    1    2 1
     3    1   22 1
     4    1   23 1
     5    2    3 1
     6    2   24 1
     7    2   25 1
     8    3    4 1
     9    3   26 1
    10    3   27 1
    11    4    5 1
    12    4   28 1
    13    4   29 1
    14    5    6 1
    15    5    8 1
    16    5   11 1
    17    6    7 1
    18    6   30 1
    19    6   31 1
    20    7   32 1
    21    7   33 1
    22    8    9 2
    23    8   10 1
    24   11   12 am
    25   11   34 1
    26   12   13 2
    27   12   14 am
    28   14   15 1
    29   14   35 1
    30   15   16 1
    31   15   36 1
    32   15   37 1
    33   16   17 1
    34   16   21 1
    35   16   18 1
    36   18   19 1
    37   18   38 1
    38   18   39 1
    39   19   20 1
    40   19   40 1
    41   19   41 1
    42   20   21 1
    43   20   42 1
    44   20   43 1
@<TRIPOS>MOLECULE
ZINC49238588
   38    39     0     0     0
SMALL
USER_CHARGES

@<TRIPOS>ATOM
      1 C1         -0.0187    1.5258    0.0104 C.3       1 <0>        -0.1396
      2 C2          0.0021   -0.0041    0.0020 C.3       1 <0>        -0.0204
      3 C3          0.7182   -0.4975   -1.2568 C.3       1 <0>        -0.1420
      4 C4          0.7309   -0.5033    1.2229 C.2       1 <0>         0.0951
      5 C5          2.0811   -0.6211    1.2424 C.2       1 <0>        -0.3111
      6 S1          2.3375   -1.2374    2.8984 S.3       1 <0>         0.2306
      7 C6          0.7264   -1.2794    3.3832 C.2       1 <0>         0.2888
      8 N1          0.0831   -0.8401    2.3232 N.2       1 <0>        -0.5763
      9 N2          0.2030   -1.6767    4.6081 N.am      1 <0>        -0.6296
     10 C7          1.0269   -2.0962    5.5888 C.2       1 <0>         0.7086
     11 O1          2.2279   -2.1272    5.4020 O.2       1 <0>        -0.5247
     12 N3          0.5194   -2.4814    6.7764 N.am      1 <0>        -0.6978
     13 C8          1.4149   -2.9375    7.8424 C.3       1 <0>         0.1168
     14 C9          2.1243   -4.2510    7.4295 C.3       1 <0>        -0.1124
     15 C10         1.0495   -5.3269    7.7235 C.3       1 <0>        -0.1227
     16 C11         0.3743   -4.8420    9.0230 C.3       1 <0>        -0.1207
     17 C12         0.6067   -3.3227    9.0986 C.3       1 <0>        -0.1106
     18 C13         2.4261   -1.8700    8.1727 C.2       1 <0>         0.5038
     19 O2          2.4023   -0.8039    7.5816 O.co2     1 <0>        -0.6724
     20 O3          3.2680   -2.0725    9.0311 O.co2     1 <0>        -0.6961
     21 H1          1.0039    1.9031    0.0027 H         1 <0>         0.0560
     22 H2         -0.5459    1.8868   -0.8726 H         1 <0>         0.0571
     23 H3         -0.5289    1.8773    0.9072 H         1 <0>         0.0559
     24 H4         -1.0205   -0.3814    0.0098 H         1 <0>         0.0810
     25 H5          1.7408   -0.1202   -1.2645 H         1 <0>         0.0585
     26 H6          0.7330   -1.5874   -1.2628 H         1 <0>         0.0560
     27 H7          0.1910   -0.1364   -2.1398 H         1 <0>         0.0580
     28 H8          2.8028   -0.4028    0.4692 H         1 <0>         0.1854
     29 H9         -0.7552   -1.6520    4.7571 H         1 <0>         0.4116
     30 H10        -0.4388   -2.4567    6.9254 H         1 <0>         0.3858
     31 H11         2.3768   -4.2369    6.3693 H         1 <0>         0.0685
     32 H12         3.0137   -4.4173    8.0374 H         1 <0>         0.0818
     33 H13         0.3242   -5.3735    6.9112 H         1 <0>         0.0556
     34 H14         1.5158   -6.3002    7.8761 H         1 <0>         0.0590
     35 H15        -0.6942   -5.0551    8.9907 H         1 <0>         0.0555
     36 H16         0.8274   -5.3323    9.8846 H         1 <0>         0.0624
     37 H17         1.1725   -3.0758    9.9969 H         1 <0>         0.0863
     38 H18        -0.3491   -2.7986    9.1030 H         1 <0>         0.0582
@<TRIPOS>BOND
     1    1    2 1
     2    1   21 1
     3    1   22 1
     4    1   23 1
     5    2    3 1
     6    2    4 1
     7    2   24 1
     8    3   25 1
     9    3   26 1
    10    3   27 1
    11    4    8 1
    12    4    5 2
    13    5    6 1
    14    5   28 1
    15    6    7 1
    16    7    8 2
    17    7    9 1
    18    9   10 am
    19    9   29 1
    20   10   11 2
    21   10   12 am
    22   12   13 1
    23   12   30 1
    24   13   17 1
    25   13   14 1
    26   13   18 1
    27   14   15 1
    28   14   31 1
    29   14   32 1
    30   15   16 1
    31   15   33 1
    32   15   34 1
    33   16   17 1
    34   16   35 1
    35   16   36 1
    36   17   37 1
    37   17   38 1
    38   18   19 2
    39   18   20 1
@<TRIPOS>MOLECULE
ZINC00505675
   29    30     0     0     0
SMALL
USER_CHARGES

@<TRIPOS>ATOM
      1 C1          0.6634    0.2575    1.1944 C.ar      1 <0>        -0.0653
      2 C2          1.8495    0.9649    1.1843 C.ar      1 <0>        -0.1451
      3 C3          2.3790    1.4136   -0.0140 C.ar      1 <0>         0.1032
      4 C4          1.7208    1.1537   -1.2044 C.ar      1 <0>        -0.1451
      5 C5          0.5347    0.4462   -1.1984 C.ar      1 <0>        -0.0655
      6 C6          0.0021   -0.0041    0.0020 C.ar      1 <0>         0.1144
      7 N1         -1.2017   -0.7223    0.0101 N.am      1 <0>        -0.4871
      8 C7         -2.3767   -0.0678    0.1216 C.2       1 <0>         0.5289
      9 O1         -2.4031    1.1492    0.2159 O.2       1 <0>        -0.5912
     10 C8         -3.5643   -0.8081    0.1267 C.2       1 <0>        -0.4795
     11 C9         -3.4913   -2.1868    0.0171 C.2       1 <0>         0.4523
     12 N2         -2.3006   -2.7827   -0.0907 N.2       1 <0>        -0.5624
     13 C10        -1.1849   -2.0816   -0.1003 C.2       1 <0>         0.3600
     14 S1          0.3590   -2.9170   -0.2516 S.3       1 <0>         0.0359
     15 C11        -0.0991   -4.6684   -0.3678 C.3       1 <0>        -0.1447
     16 C12         1.1466   -5.5056   -0.5031 C.2       1 <0>         0.5401
     17 O2          2.2362   -4.9732   -0.5195 O.2       1 <0>        -0.5289
     18 N3          1.0498   -6.8459   -0.6058 N.am      1 <0>        -0.8486
     19 O3         -4.6235   -2.9286    0.0196 O.3       1 <0>        -0.6782
     20 F1          3.5390    2.1062   -0.0218 F         1 <0>        -0.1402
     21 H1          0.2529   -0.0958    2.1287 H         1 <0>         0.1363
     22 H2          2.3643    1.1686    2.1117 H         1 <0>         0.1408
     23 H3          2.1351    1.5047   -2.1379 H         1 <0>         0.1408
     24 H4          0.0215    0.2440   -2.1269 H         1 <0>         0.1363
     25 H5         -4.5203   -0.3134    0.2148 H         1 <0>         0.1249
     26 H6         -0.6391   -4.9631    0.5320 H         1 <0>         0.1286
     27 H7         -0.7355   -4.8204   -1.2396 H         1 <0>         0.1285
     28 H8          0.1784   -7.2717   -0.5927 H         1 <0>         0.4060
     29 H9          1.8517   -7.3848   -0.6929 H         1 <0>         0.4050
@<TRIPOS>BOND
     1    1    6 ar
     2    1    2 ar
     3    1   21 1
     4    2    3 ar
     5    2   22 1
     6    3    4 ar
     7    3   20 1
     8    4    5 ar
     9    4   23 1
    10    5    6 ar
    11    5   24 1
    12    6    7 1
    13    7   13 1
    14    7    8 am
    15    8    9 2
    16    8   10 1
    17   10   25 1
    18   10   11 2
    19   11   19 1
    20   11   12 1
    21   12   13 2
    22   13   14 1
    23   14   15 1
    24   15   16 1
    25   15   26 1
    26   15   27 1
    27   16   17 2
    28   16   18 am
    29   18   28 1
    30   18   29 1
@<TRIPOS>MOLECULE
ZINC43156173
   44    44     0     0     0
SMALL
USER_CHARGES

@<TRIPOS>ATOM
      1 C1         -4.4535    1.7659   -1.6925 C.3       1 <0>        -0.1450
      2 C2         -3.1575    1.7106   -0.8811 C.3       1 <0>        -0.0792
      3 C3         -2.9180    0.2983   -0.4128 C.ar      1 <0>        -0.0745
      4 C4         -3.3391   -0.0946    0.8427 C.ar      1 <0>        -0.1186
      5 C5         -3.1196   -1.3901    1.2730 C.ar      1 <0>        -0.1081
      6 C6         -2.4777   -2.2963    0.4487 C.ar      1 <0>        -0.1193
      7 C7         -2.0543   -1.9097   -0.8075 C.ar      1 <0>        -0.0699
      8 C8         -2.2787   -0.6108   -1.2451 C.ar      1 <0>         0.1516
      9 N1         -1.8560   -0.2174   -2.5199 N.am      1 <0>        -0.6952
     10 C9         -2.5414   -0.6155   -3.6099 C.2       1 <0>         0.7081
     11 O1         -3.5781   -1.2379   -3.4824 O.2       1 <0>        -0.5711
     12 N2         -2.0778   -0.3236   -4.8413 N.am      1 <0>        -0.7461
     13 C10        -2.8229   -0.7563   -6.0261 C.3       1 <0>         0.1387
     14 C11        -2.0857   -0.3003   -7.2869 C.3       1 <0>        -0.1390
     15 C12        -2.8639   -0.7522   -8.5243 C.3       1 <0>         0.1159
     16 N3         -2.1580   -0.3155   -9.7315 N.pl3     1 <0>        -1.1206
     17 S1         -2.5516   -0.9671  -11.2021 S.o2      1 <0>         2.6167
     18 O2         -1.6682   -0.3426  -12.1235 O.2       1 <0>        -0.9580
     19 O3         -2.5107   -2.3729  -10.9985 O.2       1 <0>        -0.9552
     20 C13        -4.2567   -0.4295  -11.5089 C.3       1 <0>        -0.6738
     21 C14        -1.3544   -2.8976   -1.7049 C.3       1 <0>        -0.1114
     22 H1         -4.6267    2.7874   -2.0312 H         1 <0>         0.0553
     23 H2         -4.3699    1.1061   -2.5561 H         1 <0>         0.0580
     24 H3         -5.2870    1.4437   -1.0684 H         1 <0>         0.0556
     25 H4         -2.3240    2.0328   -1.5052 H         1 <0>         0.0673
     26 H5         -3.2411    2.3704   -0.0175 H         1 <0>         0.0720
     27 H6         -3.8400    0.6109    1.4890 H         1 <0>         0.1252
     28 H7         -3.4499   -1.6949    2.2551 H         1 <0>         0.1253
     29 H8         -2.3071   -3.3073    0.7880 H         1 <0>         0.1255
     30 H9         -1.0696    0.3418   -2.6190 H         1 <0>         0.4019
     31 H10        -1.2508    0.1730   -4.9431 H         1 <0>         0.3974
     32 H11        -2.9053   -1.8432   -6.0266 H         1 <0>         0.0729
     33 H12        -3.8200   -0.3163   -6.0090 H         1 <0>         0.0713
     34 H13        -2.0033    0.7866   -7.2864 H         1 <0>         0.0792
     35 H14        -1.0886   -0.7403   -7.3040 H         1 <0>         0.0816
     36 H15        -2.9463   -1.8391   -8.5247 H         1 <0>         0.0870
     37 H16        -3.8610   -0.3122   -8.5072 H         1 <0>         0.0698
     38 H17        -1.4601    0.3553   -9.6693 H         1 <0>         0.4193
     39 H18        -4.2967    0.6596  -11.5267 H         1 <0>         0.1291
     40 H19        -4.5941   -0.8213  -12.4685 H         1 <0>         0.1306
     41 H20        -4.9040   -0.8039  -10.7158 H         1 <0>         0.1275
     42 H21        -2.0837   -3.3717   -2.3618 H         1 <0>         0.0733
     43 H22        -0.6082   -2.3776   -2.3056 H         1 <0>         0.0622
     44 H23        -0.8653   -3.6581   -1.0963 H         1 <0>         0.0668
@<TRIPOS>BOND
     1    1    2 1
     2    1   22 1
     3    1   23 1
     4    1   24 1
     5    2    3 1
     6    2   25 1
     7    2   26 1
     8    3    8 ar
     9    3    4 ar
    10    4    5 ar
    11    4   27 1
    12    5    6 ar
    13    5   28 1
    14    6    7 ar
    15    6   29 1
    16    7    8 ar
    17    7   21 1
    18    8    9 1
    19    9   10 am
    20    9   30 1
    21   10   11 2
    22   10   12 am
    23   12   13 1
    24   12   31 1
    25   13   14 1
    26   13   32 1
    27   13   33 1
    28   14   15 1
    29   14   34 1
    30   14   35 1
    31   15   16 1
    32   15   36 1
    33   15   37 1
    34   16   17 1
    35   16   38 1
    36   17   18 2
    37   17   19 2
    38   17   20 1
    39   20   39 1
    40   20   40 1
    41   20   41 1
    42   21   42 1
    43   21   43 1
    44   21   44 1
@<TRIPOS>MOLECULE
ZINC49496824
   31    31     0     0     0
SMALL
USER_CHARGES

@<TRIPOS>ATOM
      1 C1         -0.0173    1.4248    0.0099 C.3       1 <0>         0.0308
      2 O1          0.0021   -0.0041    0.0020 O.3       1 <0>        -0.3844
      3 C2          0.6518   -0.5703   -1.1379 C.3       1 <0>         0.1511
      4 C3          0.6137   -2.0738   -1.0425 C.2       1 <0>        -0.0025
      5 N1         -0.2985   -2.8867   -1.5013 N.2       1 <0>        -0.4648
      6 C4         -0.1358   -4.1990   -1.3059 C.2       1 <0>        -0.0131
      7 C5          0.9951   -4.5711   -0.6295 C.2       1 <0>        -0.2191
      8 S1          1.7382   -3.0949   -0.3277 S.3       1 <0>         0.3294
      9 C6         -1.1155   -5.1866   -1.7892 C.2       1 <0>         0.6095
     10 O2         -0.9319   -6.3726   -1.5912 O.2       1 <0>        -0.5110
     11 N2         -2.2155   -4.7763   -2.4510 N.am      1 <0>        -0.5361
     12 N3         -3.1476   -5.7158   -2.9108 N.pl3     1 <0>        -0.4605
     13 C7         -4.2476   -5.3055   -3.5726 C.2       1 <0>         0.5646
     14 S2         -5.3865   -6.4536   -4.1345 S.2       1 <0>        -0.5662
     15 N4         -4.4511   -3.9914   -3.7921 N.pl3     1 <0>        -0.6896
     16 C8         -5.6468   -3.5454   -4.5114 C.3       1 <0>         0.0841
     17 C9         -5.6348   -2.0196   -4.6241 C.3       1 <0>         0.4473
     18 F1         -4.4922   -1.6125   -5.3213 F         1 <0>        -0.1773
     19 F2         -6.7767   -1.5937   -5.3111 F         1 <0>        -0.1627
     20 F3         -5.6244   -1.4575   -3.3431 F         1 <0>        -0.1766
     21 H1          1.0053    1.8021    0.0021 H         1 <0>         0.0487
     22 H2         -0.5445    1.7859   -0.8732 H         1 <0>         0.0481
     23 H3         -0.5275    1.7763    0.9067 H         1 <0>         0.0940
     24 H4          0.1385   -0.2506   -2.0447 H         1 <0>         0.0868
     25 H5          1.6883   -0.2344   -1.1694 H         1 <0>         0.0838
     26 H6          1.3274   -5.5631   -0.3613 H         1 <0>         0.2146
     27 H7         -2.3620   -3.8305   -2.6090 H         1 <0>         0.4300
     28 H8         -3.0011   -6.6616   -2.7529 H         1 <0>         0.4629
     29 H9         -3.8058   -3.3409   -3.4737 H         1 <0>         0.4002
     30 H10        -5.6549   -3.9834   -5.5095 H         1 <0>         0.1391
     31 H11        -6.5370   -3.8626   -3.9683 H         1 <0>         0.1391
@<TRIPOS>BOND
     1    1    2 1
     2    1   21 1
     3    1   22 1
     4    1   23 1
     5    2    3 1
     6    3    4 1
     7    3   24 1
     8    3   25 1
     9    4    8 1
    10    4    5 2
    11    5    6 1
    12    6    7 2
    13    6    9 1
    14    7    8 1
    15    7   26 1
    16    9   10 2
    17    9   11 am
    18   11   12 1
    19   11   27 1
    20   12   13 1
    21   12   28 1
    22   13   14 2
    23   13   15 1
    24   15   16 1
    25   15   29 1
    26   16   17 1
    27   16   30 1
    28   16   31 1
    29   17   18 1
    30   17   19 1
    31   17   20 1
@<TRIPOS>MOLECULE
ZINC56863156
   34    34     0     0     0
SMALL
USER_CHARGES

@<TRIPOS>ATOM
      1 C1         -0.0167    1.3784    0.0096 C.ar      1 <0>        -0.0668
      2 C2          1.1695    2.0865    0.0021 C.ar      1 <0>        -0.1206
      3 C3          2.3802    1.4093   -0.0131 C.ar      1 <0>         0.1066
      4 C4          2.3963    0.0221   -0.0206 C.ar      1 <0>        -0.1875
      5 C5          1.2074   -0.6814   -0.0130 C.ar      1 <0>        -0.0623
      6 C6          0.0021   -0.0041    0.0020 C.ar      1 <0>        -0.0887
      7 C7         -1.2934   -0.7740    0.0107 C.3       1 <0>        -0.0982
      8 C8         -1.7392   -1.0230   -1.4071 C.2       1 <0>         0.5119
      9 O1         -1.0709   -0.6154   -2.3334 O.2       1 <0>        -0.5202
     10 N1         -2.8807   -1.6987   -1.6458 N.am      1 <0>        -0.7287
     11 C9         -3.3142   -1.9407   -3.0241 C.3       1 <0>         0.1320
     12 C10        -4.6294   -2.7224   -3.0152 C.3       1 <0>        -0.6476
     13 S1         -5.1661   -3.0222   -4.7219 S.o2      1 <0>         2.6266
     14 O2         -5.5337   -1.7974   -5.3416 O.2       1 <0>        -0.9537
     15 O3         -4.2723   -3.9200   -5.3655 O.2       1 <0>        -0.9537
     16 N2         -6.5838   -3.8662   -4.5802 N.pl3     1 <0>        -1.2493
     17 O4          3.5484    2.1036   -0.0209 O.3       1 <0>        -0.3105
     18 C11         4.7565    1.3405   -0.0365 C.3       1 <0>         0.6040
     19 F1          4.7875    0.5396   -1.1831 F         1 <0>        -0.1636
     20 F2          5.8551    2.2067   -0.0428 F         1 <0>        -0.1302
     21 F3          4.8097    0.5282    1.1013 F         1 <0>        -0.1650
     22 H1         -0.9594    1.9052    0.0259 H         1 <0>         0.1366
     23 H2          1.1543    3.1664    0.0076 H         1 <0>         0.1408
     24 H3          3.3375   -0.5074   -0.0328 H         1 <0>         0.1347
     25 H4          1.2194   -1.7613   -0.0189 H         1 <0>         0.1319
     26 H5         -1.1460   -1.7274    0.5180 H         1 <0>         0.1081
     27 H6         -2.0553   -0.1973    0.5352 H         1 <0>         0.1088
     28 H7         -3.4153   -2.0247   -0.9049 H         1 <0>         0.4051
     29 H8         -3.4616   -0.9873   -3.5314 H         1 <0>         0.0873
     30 H9         -2.5523   -2.5174   -3.5486 H         1 <0>         0.0872
     31 H10        -4.4820   -3.6758   -2.5080 H         1 <0>         0.1438
     32 H11        -5.3913   -2.1458   -2.4908 H         1 <0>         0.1439
     33 H12        -6.9331   -4.0836   -3.7017 H         1 <0>         0.4135
     34 H13        -7.0649   -4.1432   -5.3756 H         1 <0>         0.4237
@<TRIPOS>BOND
     1    1    6 ar
     2    1    2 ar
     3    1   22 1
     4    2    3 ar
     5    2   23 1
     6    3    4 ar
     7    3   17 1
     8    4    5 ar
     9    4   24 1
    10    5    6 ar
    11    5   25 1
    12    6    7 1
    13    7    8 1
    14    7   26 1
    15    7   27 1
    16    8    9 2
    17    8   10 am
    18   10   11 1
    19   10   28 1
    20   11   12 1
    21   11   29 1
    22   11   30 1
    23   12   13 1
    24   12   31 1
    25   12   32 1
    26   13   14 2
    27   13   15 2
    28   13   16 1
    29   16   33 1
    30   16   34 1
    31   17   18 1
    32   18   19 1
    33   18   20 1
    34   18   21 1
@<TRIPOS>MOLECULE
ZINC65530026
   44    44     0     0     0
SMALL
USER_CHARGES

@<TRIPOS>ATOM
      1 C1         -0.0187    1.5258    0.0104 C.3       1 <0>        -0.1652
      2 C2          0.0021   -0.0041    0.0020 C.3       1 <0>         0.1651
      3 C3         -1.4333   -0.5336    0.0129 C.3       1 <0>        -0.0454
      4 C4         -1.4136   -2.0361    0.1285 C.2       1 <0>        -0.1354
      5 C5         -1.4297   -2.8067    1.2434 C.2       1 <0>        -0.1583
      6 C6         -1.4064   -4.1821    1.1081 C.2       1 <0>        -0.1529
      7 C7         -1.3681   -4.7197   -0.1357 C.2       1 <0>        -0.1749
      8 S1         -1.3708   -3.2629   -1.1678 S.3       1 <0>         0.0256
      9 N1          0.6878   -0.4765   -1.2033 N.am      1 <0>        -0.7398
     10 C8          2.0310   -0.5870   -1.2149 C.2       1 <0>         0.7072
     11 O1          2.6736   -0.2945   -0.2251 O.2       1 <0>        -0.5839
     12 N2          2.6618   -1.0216   -2.3238 N.am      1 <0>        -0.7488
     13 C9          4.1218   -1.1417   -2.3364 C.3       1 <0>         0.1542
     14 C10         4.5797   -1.6524   -3.7041 C.3       1 <0>        -0.1531
     15 C11         6.0816   -1.7759   -3.7171 C.2       1 <0>         0.5177
     16 O2          6.7226   -1.4842   -2.7297 O.2       1 <0>        -0.5332
     17 N3          6.7124   -2.2105   -4.8259 N.am      1 <0>        -0.7262
     18 C12         8.1725   -2.3306   -4.8386 C.3       1 <0>         0.1207
     19 C13         8.6304   -2.8413   -6.2062 C.3       1 <0>         0.0467
     20 O3          8.3224   -1.8676   -7.2058 O.3       1 <0>        -0.3905
     21 C14         8.7111   -2.2483   -8.5272 C.3       1 <0>         0.0301
     22 H1          1.0039    1.9031    0.0027 H         1 <0>         0.0665
     23 H2         -0.5459    1.8868   -0.8726 H         1 <0>         0.0581
     24 H3         -0.5289    1.8773    0.9072 H         1 <0>         0.0684
     25 H4          0.5293   -0.3651    0.8851 H         1 <0>         0.0937
     26 H5         -1.9701   -0.1109    0.8621 H         1 <0>         0.1055
     27 H6         -1.9334   -0.2470   -0.9122 H         1 <0>         0.0858
     28 H7         -1.4599   -2.3528    2.2230 H         1 <0>         0.1330
     29 H8         -1.4181   -4.8190    1.9802 H         1 <0>         0.1333
     30 H9         -1.3458   -5.7594   -0.4269 H         1 <0>         0.1842
     31 H10         0.1751   -0.7099   -1.9930 H         1 <0>         0.3930
     32 H11         2.1491   -1.2550   -3.1135 H         1 <0>         0.3948
     33 H12         4.5683   -0.1659   -2.1449 H         1 <0>         0.0760
     34 H13         4.4354   -1.8429   -1.5631 H         1 <0>         0.0753
     35 H14         4.1333   -2.6281   -3.8957 H         1 <0>         0.1009
     36 H15         4.2661   -0.9512   -4.4774 H         1 <0>         0.1019
     37 H16         6.1998   -2.4439   -5.6156 H         1 <0>         0.4041
     38 H17         8.6189   -1.3549   -4.6470 H         1 <0>         0.0786
     39 H18         8.4861   -3.0318   -4.0652 H         1 <0>         0.0853
     40 H19         9.7063   -3.0151   -6.1875 H         1 <0>         0.0690
     41 H20         8.1156   -3.7740   -6.4367 H         1 <0>         0.0579
     42 H21         8.4430   -1.4567   -9.2270 H         1 <0>         0.0884
     43 H22         9.7886   -2.4098   -8.5567 H         1 <0>         0.0438
     44 H23         8.1979   -3.1687   -8.8059 H         1 <0>         0.0428
@<TRIPOS>BOND
     1    1    2 1
     2    1   22 1
     3    1   23 1
     4    1   24 1
     5    2    3 1
     6    2    9 1
     7    2   25 1
     8    3    4 1
     9    3   26 1
    10    3   27 1
    11    4    8 1
    12    4    5 2
    13    5    6 1
    14    5   28 1
    15    6    7 2
    16    6   29 1
    17    7    8 1
    18    7   30 1
    19    9   10 am
    20    9   31 1
    21   10   11 2
    22   10   12 am
    23   12   13 1
    24   12   32 1
    25   13   14 1
    26   13   33 1
    27   13   34 1
    28   14   15 1
    29   14   35 1
    30   14   36 1
    31   15   16 2
    32   15   17 am
    33   17   18 1
    34   17   37 1
    35   18   19 1
    36   18   38 1
    37   18   39 1
    38   19   20 1
    39   19   40 1
    40   19   41 1
    41   20   21 1
    42   21   42 1
    43   21   43 1
    44   21   44 1
@<TRIPOS>MOLECULE
ZINC67493171
   41    42     0     0     0
SMALL
USER_CHARGES

@<TRIPOS>ATOM
      1 C1         -0.3307    1.8341   -0.9428 C.3       1 <0>        -0.1250
      2 S1         -0.3522    0.0240   -1.0596 S.3       1 <0>        -0.2561
      3 C2         -1.7279   -0.4688    0.0152 C.3       1 <0>        -0.0436
      4 C3         -1.8576   -1.9702    0.0086 C.ar      1 <0>        -0.0861
      5 C4         -2.6645   -2.5889   -0.9288 C.ar      1 <0>        -0.0788
      6 C5         -2.7856   -3.9645   -0.9377 C.ar      1 <0>        -0.1370
      7 C6         -2.0953   -4.7270   -0.0038 C.ar      1 <0>         0.1456
      8 C7         -1.2853   -4.1023    0.9362 C.ar      1 <0>        -0.1178
      9 C8         -1.1650   -2.7266    0.9364 C.ar      1 <0>        -0.0783
     10 N1         -2.2160   -6.1191   -0.0097 N.am      1 <0>        -0.6429
     11 C9         -2.1637   -6.8049    1.1494 C.2       1 <0>         0.5100
     12 O1         -2.1084   -6.2088    2.2053 O.2       1 <0>        -0.4900
     13 C10        -2.1740   -8.2983    1.1346 C.2       1 <0>         0.5155
     14 O2         -2.2294   -8.8942    0.0788 O.2       1 <0>        -0.5141
     15 N2         -2.1218   -8.9841    2.2936 N.am      1 <0>        -0.6867
     16 C11        -2.1319  -10.4490    2.2791 C.3       1 <0>         0.0986
     17 C12        -2.0662  -10.9658    3.6932 C.2       1 <0>         0.5134
     18 O3         -2.0159  -10.1872    4.6217 O.2       1 <0>        -0.5269
     19 N3         -2.0633  -12.2933    3.9260 N.am      1 <0>        -0.6961
     20 C13        -1.9994  -12.7958    5.3006 C.3       1 <0>         0.0742
     21 C14        -1.0557  -13.9669    5.5816 C.3       1 <0>        -0.1903
     22 C15        -2.5694  -14.1898    5.5705 C.3       1 <0>        -0.1861
     23 H1          0.4737    2.2287   -1.5634 H         1 <0>         0.1029
     24 H2         -1.2848    2.2319   -1.2884 H         1 <0>         0.0768
     25 H3         -0.1681    2.1293    0.0938 H         1 <0>         0.0768
     26 H4         -1.5359   -0.1252    1.0317 H         1 <0>         0.0911
     27 H5         -2.6527   -0.0227   -0.3506 H         1 <0>         0.0911
     28 H6         -3.2007   -1.9954   -1.6545 H         1 <0>         0.1316
     29 H7         -3.4164   -4.4469   -1.6696 H         1 <0>         0.1321
     30 H8         -0.7473   -4.6921    1.6636 H         1 <0>         0.1375
     31 H9         -0.5325   -2.2405    1.6644 H         1 <0>         0.1307
     32 H10        -2.3372   -6.5918   -0.8479 H         1 <0>         0.4244
     33 H11        -2.0776   -8.5077    3.1375 H         1 <0>         0.4263
     34 H12        -3.0483  -10.8013    1.8057 H         1 <0>         0.1099
     35 H13        -1.2705  -10.8127    1.7189 H         1 <0>         0.1099
     36 H14        -2.1035  -12.9161    3.1833 H         1 <0>         0.4065
     37 H15        -2.1161  -12.0445    6.0817 H         1 <0>         0.1407
     38 H16        -0.4824  -14.3635    4.7436 H         1 <0>         0.0990
     39 H17        -0.5513  -13.9861    6.5476 H         1 <0>         0.1051
     40 H18        -3.0607  -14.3557    6.5292 H         1 <0>         0.1064
     41 H19        -2.9919  -14.7330    4.7252 H         1 <0>         0.0995
@<TRIPOS>BOND
     1    1    2 1
     2    1   23 1
     3    1   24 1
     4    1   25 1
     5    2    3 1
     6    3    4 1
     7    3   26 1
     8    3   27 1
     9    4    9 ar
    10    4    5 ar
    11    5    6 ar
    12    5   28 1
    13    6    7 ar
    14    6   29 1
    15    7    8 ar
    16    7   10 1
    17    8    9 ar
    18    8   30 1
    19    9   31 1
    20   10   11 am
    21   10   32 1
    22   11   12 2
    23   11   13 1
    24   13   14 2
    25   13   15 am
    26   15   16 1
    27   15   33 1
    28   16   17 1
    29   16   34 1
    30   16   35 1
    31   17   18 2
    32   17   19 am
    33   19   20 1
    34   19   36 1
    35   20   22 1
    36   20   21 1
    37   20   37 1
    38   21   22 1
    39   21   38 1
    40   21   39 1
    41   22   40 1
    42   22   41 1
@<TRIPOS>MOLECULE
ZINC13204127
   50    51     0     0     0
SMALL
USER_CHARGES
2-[3-(4-chlorophenyl)-5-[2-(isopentylcarbamoylamino)-2-oxo-ethyl]sulfanyl-1,2,4-triazol-4-yl]acetic acid
@<TRIPOS>ATOM
      1 C1          6.1179    9.3098   -0.6604 C.3       1 <0>        -0.1474
      2 C2          6.1046    7.7860   -0.5234 C.3       1 <0>        -0.0933
      3 C3          6.8546    7.3817    0.7474 C.3       1 <0>        -0.1543
      4 C4          4.6582    7.2940   -0.4403 C.3       1 <0>        -0.1271
      5 C5          4.6398    5.7642   -0.4289 C.3       1 <0>         0.1319
      6 N1          3.2549    5.2931   -0.3494 N.am      1 <0>        -0.7389
      7 C6          2.9930    3.9712   -0.3260 C.2       1 <0>         0.6943
      8 O1          3.9058    3.1700   -0.3708 O.2       1 <0>        -0.5260
      9 N2          1.7189    3.5378   -0.2529 N.am      1 <0>        -0.6865
     10 C7          1.4571    2.2159   -0.2295 C.2       1 <0>         0.5388
     11 O2          2.3676    1.4167   -0.2742 O.2       1 <0>        -0.4456
     12 C8          0.0325    1.7313   -0.1477 C.3       1 <0>        -0.1533
     13 S1          0.0107   -0.0785   -0.1342 S.3       1 <0>         0.0961
     14 C9         -1.7255   -0.3628   -0.0366 C.2       1 <0>         0.1530
     15 N3         -2.6643    0.5556    0.0146 N.2       1 <0>        -0.3017
     16 N4         -3.8217    0.0006    0.0772 N.2       1 <0>        -0.2729
     17 C10        -3.6927   -1.3057    0.0787 C.2       1 <0>         0.2210
     18 N5         -2.3462   -1.5787    0.0059 N.pl3     1 <0>        -0.4133
     19 C11        -1.7107   -2.8984   -0.0206 C.3       1 <0>         0.0388
     20 C12        -1.3601   -3.3154    1.3845 C.2       1 <0>         0.4542
     21 O3         -1.6149   -2.5851    2.3127 O.co2     1 <0>        -0.6062
     22 C13        -4.7878   -2.2966    0.1459 C.ar      1 <0>        -0.0012
     23 C14        -4.5248   -3.6048    0.5558 C.ar      1 <0>        -0.0914
     24 C15        -5.5516   -4.5233    0.6221 C.ar      1 <0>        -0.1031
     25 C16        -6.8392   -4.1530    0.2720 C.ar      1 <0>        -0.0270
     26 C17        -7.1052   -2.8583   -0.1408 C.ar      1 <0>        -0.1131
     27 C18        -6.0877   -1.9293   -0.2056 C.ar      1 <0>        -0.0679
     28 Cl1        -8.1250   -5.3168    0.3505 Cl        1 <0>        -0.0738
     29 H1          5.6312    9.7568    0.2065 H         1 <0>         0.0550
     30 H2          7.1483    9.6603   -0.7195 H         1 <0>         0.0562
     31 H3          5.5836    9.5979   -1.5657 H         1 <0>         0.0547
     32 H4          6.5912    7.3390   -1.3902 H         1 <0>         0.0741
     33 H5          6.8451    6.2961    0.8451 H         1 <0>         0.0600
     34 H6          7.8850    7.7322    0.6883 H         1 <0>         0.0557
     35 H7          6.3679    7.8287    1.6143 H         1 <0>         0.0555
     36 H8          4.1006    7.6577   -1.3035 H         1 <0>         0.0705
     37 H9          4.1985    7.6698    0.4738 H         1 <0>         0.0711
     38 H10         5.1974    5.4005    0.4342 H         1 <0>         0.0727
     39 H11         5.0995    5.3884   -1.3430 H         1 <0>         0.0693
     40 H12         2.5264    5.9325   -0.3137 H         1 <0>         0.3986
     41 H13         0.9904    4.1773   -0.2171 H         1 <0>         0.4125
     42 H14        -0.5251    2.0950   -1.0108 H         1 <0>         0.1313
     43 H15        -0.4272    2.1071    0.7664 H         1 <0>         0.1332
     44 H16        -2.3986   -3.6243   -0.4541 H         1 <0>         0.1099
     45 H17        -0.8035   -2.8528   -0.6232 H         1 <0>         0.1063
     46 H18        -3.5201   -3.8959    0.8248 H         1 <0>         0.1475
     47 H19        -5.3501   -5.5347    0.9430 H         1 <0>         0.1406
     48 H20        -8.1114   -2.5754   -0.4129 H         1 <0>         0.1386
     49 H21        -6.2962   -0.9199   -0.5281 H         1 <0>         0.1443
     50 O4         -0.7647   -4.4980    1.6047 O.co2     1 <0>        -0.7413
@<TRIPOS>BOND
     1    1    2 1
     2    1   29 1
     3    1   30 1
     4    1   31 1
     5    2    3 1
     6    2    4 1
     7    2   32 1
     8    3   33 1
     9    3   34 1
    10    3   35 1
    11    4    5 1
    12    4   36 1
    13    4   37 1
    14    5    6 1
    15    5   38 1
    16    5   39 1
    17    6    7 am
    18    6   40 1
    19    7    8 2
    20    7    9 am
    21    9   10 am
    22    9   41 1
    23   10   11 2
    24   10   12 1
    25   12   13 1
    26   12   42 1
    27   12   43 1
    28   13   14 1
    29   14   18 1
    30   14   15 2
    31   15   16 1
    32   16   17 2
    33   17   18 1
    34   17   22 1
    35   18   19 1
    36   19   20 1
    37   19   44 1
    38   19   45 1
    39   20   21 2
    40   20   50 1
    41   22   27 ar
    42   22   23 ar
    43   23   24 ar
    44   23   46 1
    45   24   25 ar
    46   24   47 1
    47   25   26 ar
    48   25   28 1
    49   26   27 ar
    50   26   48 1
    51   27   49 1
@<TRIPOS>MOLECULE
ZINC13346771
   47    49     0     0     0
SMALL
USER_CHARGES
(E)-3-[4-[[2-(2-furylmethylcarbamoyl)phenyl]sulfamoyl]phenyl]prop-2-enoic acid
@<TRIPOS>ATOM
      1 C1          0.5130    6.4611   -4.0747 C.ar      1 <0>        -0.1445
      2 C2          0.7126    6.8632   -2.7633 C.ar      1 <0>        -0.0540
      3 C3          1.5575    6.1529   -1.9357 C.ar      1 <0>        -0.1883
      4 C4          2.2237    5.0325   -2.4171 C.ar      1 <0>         0.2285
      5 C5          2.0238    4.6228   -3.7444 C.ar      1 <0>        -0.1690
      6 C6          1.1606    5.3500   -4.5683 C.ar      1 <0>        -0.0601
      7 C7          2.7197    3.4324   -4.2661 C.2       1 <0>         0.5702
      8 O1          3.4697    2.8021   -3.5457 O.2       1 <0>        -0.5346
      9 N1          2.5246    3.0427   -5.5415 N.am      1 <0>        -0.7241
     10 C8          3.2161    1.8598   -6.0599 C.3       1 <0>         0.2029
     11 C9          2.8285    1.6422   -7.4999 C.2       1 <0>        -0.0409
     12 C10         3.4600    2.1559   -8.5707 C.2       1 <0>        -0.1821
     13 C11         2.7653    1.6988   -9.7142 C.2       1 <0>        -0.2200
     14 C12         1.7508    0.9332   -9.2736 C.2       1 <0>        -0.0248
     15 O2          1.7975    0.8977   -7.9318 O.3       1 <0>        -0.1691
     16 N2          3.0785    4.3186   -1.5874 N.pl3     1 <0>        -1.0415
     17 S1          2.7200    4.1470    0.0202 S.o2      1 <0>         2.6902
     18 O3          2.5053    5.4558    0.5303 O.2       1 <0>        -0.9542
     19 O4          3.6965    3.2687    0.5625 O.2       1 <0>        -0.9494
     20 C13         1.1746    3.3069    0.1226 C.ar      1 <0>        -0.6942
     21 C14         1.1451    1.9242    0.1781 C.ar      1 <0>        -0.0107
     22 C15        -0.0602    1.2594    0.2579 C.ar      1 <0>        -0.1395
     23 C16        -1.2552    1.9857    0.2773 C.ar      1 <0>         0.0331
     24 C17        -1.2168    3.3828    0.2262 C.ar      1 <0>        -0.1451
     25 C18        -0.0034    4.0330    0.1466 C.ar      1 <0>        -0.0125
     26 C19        -2.5463    1.2837    0.3562 C.2       1 <0>        -0.1421
     27 C20        -3.6970    1.9878    0.3747 C.2       1 <0>        -0.1160
     28 C21        -4.9798    1.2902    0.4531 C.2       1 <0>         0.4704
     29 O5         -5.0095    0.0753    0.5015 O.co2     1 <0>        -0.6285
     30 H1         -0.1540    7.0217   -4.7128 H         1 <0>         0.1331
     31 H2          0.2002    7.7357   -2.3858 H         1 <0>         0.1375
     32 H3          1.7041    6.4702   -0.9138 H         1 <0>         0.1699
     33 H4          1.0011    5.0411   -5.5908 H         1 <0>         0.1283
     34 H5          1.9263    3.5454   -6.1161 H         1 <0>         0.4044
     35 H6          4.2936    2.0101   -5.9924 H         1 <0>         0.1027
     36 H7          2.9335    0.9868   -5.4716 H         1 <0>         0.0895
     37 H8          4.3303    2.7953   -8.5593 H         1 <0>         0.1511
     38 H9          3.0032    1.9219  -10.7437 H         1 <0>         0.1510
     39 H10         1.0250    0.4283   -9.8939 H         1 <0>         0.2058
     40 H11         3.8854    3.9205   -1.9496 H         1 <0>         0.4380
     41 H12         2.0687    1.3646    0.1593 H         1 <0>         0.1379
     42 H13        -0.0816    0.1805    0.3008 H         1 <0>         0.1356
     43 H14        -2.1352    3.9507    0.2445 H         1 <0>         0.1383
     44 H15         0.0278    5.1116    0.1033 H         1 <0>         0.1374
     45 H16        -2.5726    0.2048    0.3992 H         1 <0>         0.1339
     46 H17        -3.6707    3.0666    0.3317 H         1 <0>         0.1109
     47 O6         -6.1305    1.9942    0.4716 O.co2     1 <0>        -0.7554
@<TRIPOS>BOND
     1    1    6 ar
     2    1    2 ar
     3    1   30 1
     4    2    3 ar
     5    2   31 1
     6    3    4 ar
     7    3   32 1
     8    4    5 ar
     9    4   16 1
    10    5    6 ar
    11    5    7 1
    12    6   33 1
    13    7    8 2
    14    7    9 am
    15    9   10 1
    16    9   34 1
    17   10   11 1
    18   10   35 1
    19   10   36 1
    20   11   15 1
    21   11   12 2
    22   12   13 1
    23   12   37 1
    24   13   14 2
    25   13   38 1
    26   14   15 1
    27   14   39 1
    28   16   17 1
    29   16   40 1
    30   17   18 2
    31   17   19 2
    32   17   20 1
    33   20   25 ar
    34   20   21 ar
    35   21   22 ar
    36   21   41 1
    37   22   23 ar
    38   22   42 1
    39   23   24 ar
    40   23   26 1
    41   24   25 ar
    42   24   43 1
    43   25   44 1
    44   26   27 2
    45   26   45 1
    46   27   28 1
    47   27   46 1
    48   28   29 2
    49   28   47 1
@<TRIPOS>MOLECULE
ZINC22972818
   52    54     0     0     0
SMALL
USER_CHARGES
N-[5-(4-allyl-5-thioxo-1H-1,2,4-triazol-3-yl)-4-methyl-thiazol-2-yl]-3,4-dimethyl-5-(methylsulfamoyl)benzamide
@<TRIPOS>ATOM
      1 C1         -3.7078    9.2419    0.5595 C.3       1 <0>        -0.1179
      2 C2         -2.2260    9.1021    0.3234 C.ar      1 <0>        -0.1105
      3 C3         -1.6754    7.8526    0.1257 C.ar      1 <0>        -0.0307
      4 C4         -0.3027    7.7249   -0.0925 C.ar      1 <0>        -0.1464
      5 C5          0.5051    8.8637   -0.1033 C.ar      1 <0>         0.0382
      6 C6         -0.0592   10.1074    0.0895 C.ar      1 <0>        -0.6862
      7 C7         -1.4208   10.2269    0.3057 C.ar      1 <0>         0.0405
      8 C8         -2.0293   11.5885    0.5224 C.3       1 <0>        -0.1498
      9 S1          0.9571   11.5467    0.0679 S.o2      1 <0>         2.6957
     10 O1          2.2954   11.0965   -0.0917 O.2       1 <0>        -0.9486
     11 O2          0.3480   12.4604   -0.8340 O.2       1 <0>        -0.9534
     12 N1          0.8650   12.2337    1.5718 N.pl3     1 <0>        -1.1239
     13 C9          1.3983   11.5222    2.7361 C.3       1 <0>         0.0813
     14 C10         0.2941    6.3896   -0.3050 C.2       1 <0>         0.5545
     15 O3          1.4899    6.2815   -0.4947 O.2       1 <0>        -0.4592
     16 N2         -0.4876    5.2918   -0.2885 N.am      1 <0>        -0.6267
     17 C11         0.0722    4.0390   -0.4879 C.2       1 <0>         0.2845
     18 N3          1.3357    3.7221   -0.7074 N.2       1 <0>        -0.4996
     19 C12         1.7087    2.4746   -0.8782 C.2       1 <0>         0.1178
     20 C13         0.7454    1.4987   -0.8225 C.2       1 <0>        -0.1141
     21 S2         -0.7107    2.4895   -0.5201 S.3       1 <0>         0.0832
     22 C14         0.8748    0.0403   -0.9759 C.2       1 <0>         0.2483
     23 N4          1.9854   -0.6076   -1.2085 N.2       1 <0>        -0.2950
     24 N5          1.6823   -1.9740   -1.2824 N.2       1 <0>        -0.3726
     25 C15         0.3533   -2.1067   -1.0943 C.2       1 <0>         0.3969
     26 S3         -0.5252   -3.5760   -1.0972 S.3       1 <0>        -0.7634
     27 N6         -0.1588   -0.8746   -0.9040 N.pl3     1 <0>        -0.4969
     28 C16        -1.5690   -0.5591   -0.6629 C.3       1 <0>         0.1430
     29 C17        -2.2631   -0.3229   -1.9795 C.2       1 <0>        -0.1768
     30 C18        -3.3340   -1.0113   -2.2881 C.2       1 <0>        -0.1554
     31 C19         3.1532    2.1247   -1.1275 C.3       1 <0>        -0.0961
     32 H1         -4.1778    8.2476    0.5387 H         1 <0>         0.0724
     33 H2         -4.1468    9.8715   -0.2284 H         1 <0>         0.0774
     34 H3         -3.8803    9.7086    1.5405 H         1 <0>         0.0763
     35 H4         -2.3052    6.9753    0.1394 H         1 <0>         0.1353
     36 H5          1.5686    8.7713   -0.2671 H         1 <0>         0.1594
     37 H6         -1.2411   12.3542    0.4742 H         1 <0>         0.0705
     38 H7         -2.5124   11.6212    1.5101 H         1 <0>         0.0920
     39 H8         -2.7785   11.7838   -0.2590 H         1 <0>         0.0979
     40 H9          0.2601   13.1417    1.7117 H         1 <0>         0.4416
     41 H10         1.2472   12.1318    3.6392 H         1 <0>         0.0861
     42 H11         2.4735   11.3390    2.5930 H         1 <0>         0.0745
     43 H12         0.8747   10.5616    2.8503 H         1 <0>         0.0549
     44 H13        -1.5697    5.3897   -0.1168 H         1 <0>         0.4466
     45 H14        -2.0489   -1.4002   -0.1411 H         1 <0>         0.1101
     46 H15        -1.6413    0.3465   -0.0426 H         1 <0>         0.0775
     47 H16        -1.8705    0.4276   -2.6814 H         1 <0>         0.1061
     48 H17        -3.8407   -0.8389   -3.2491 H         1 <0>         0.0994
     49 H18        -3.7266   -1.7618   -1.5862 H         1 <0>         0.1066
     50 H19         3.2520    1.0352   -1.2425 H         1 <0>         0.1113
     51 H20         3.7639    2.4604   -0.2764 H         1 <0>         0.0718
     52 H21         3.4980    2.6231   -2.0455 H         1 <0>         0.0718
@<TRIPOS>BOND
     1    1    2 1
     2    1   32 1
     3    1   33 1
     4    1   34 1
     5    2    7 ar
     6    2    3 ar
     7    3    4 ar
     8    3   35 1
     9    4    5 ar
    10    4   14 1
    11    5    6 ar
    12    5   36 1
    13    6    7 ar
    14    6    9 1
    15    7    8 1
    16    8   37 1
    17    8   38 1
    18    8   39 1
    19    9   10 2
    20    9   11 2
    21    9   12 1
    22   12   13 1
    23   12   40 1
    24   13   41 1
    25   13   42 1
    26   13   43 1
    27   14   15 2
    28   14   16 am
    29   16   17 1
    30   16   44 1
    31   17   21 1
    32   17   18 2
    33   18   19 1
    34   19   20 2
    35   19   31 1
    36   20   21 1
    37   20   22 1
    38   22   27 1
    39   22   23 2
    40   23   24 1
    41   24   25 2
    42   25   26 1
    43   25   27 1
    44   27   28 1
    45   28   29 1
    46   28   45 1
    47   28   46 1
    48   29   30 2
    49   29   47 1
    50   30   48 1
    51   30   49 1
    52   31   50 1
    53   31   51 1
    54   31   52 1
@<TRIPOS>MOLECULE
ZINC39970794
   56    59     0     0     0
SMALL
USER_CHARGES

@<TRIPOS>ATOM
      1 C1          6.0657   -4.0367    1.2482 C.3       1 <0>        -0.1667
      2 C2          5.4099   -2.9557    2.1099 C.3       1 <0>         0.1411
      3 H1          5.0354   -3.4007    3.0318 H         1 <0>         0.1035
      4 C3          6.4388   -1.8711    2.4442 C.3       1 <0>        -0.1252
      5 C4          6.8596   -1.1587    1.1567 C.3       1 <0>        -0.1206
      6 C5          5.6399   -0.4879    0.5208 C.3       1 <0>        -0.1268
      7 C6          4.6019   -1.5568    0.1648 C.3       1 <0>         0.1532
      8 H2          5.0032   -2.2128   -0.6077 H         1 <0>         0.0787
      9 N1          4.2971   -2.3443    1.3706 N.pl3     1 <0>        -0.9882
     10 S1          2.7352   -2.5354    1.8866 S.o2      1 <0>         2.6912
     11 O1          2.8047   -3.0362    3.2146 O.2       1 <0>        -0.9629
     12 O2          2.0499   -1.3341    1.5603 O.2       1 <0>        -0.9521
     13 C7          2.0144   -3.8089    0.9051 C.ar      1 <0>        -0.6779
     14 C8          1.2572   -3.4800   -0.2042 C.ar      1 <0>        -0.0161
     15 C9          0.6905   -4.4758   -0.9753 C.ar      1 <0>        -0.0958
     16 C10         0.8822   -5.8088   -0.6358 C.ar      1 <0>         0.1934
     17 C11         1.6436   -6.1358    0.4788 C.ar      1 <0>        -0.1482
     18 C12         2.2119   -5.1353    1.2427 C.ar      1 <0>        -0.0118
     19 N2          0.3092   -6.8198   -1.4144 N.pl3     1 <0>        -0.6395
     20 C13         0.2795   -6.7016   -2.7566 C.2       1 <0>         0.5456
     21 S2          1.0768   -5.3921   -3.5185 S.2       1 <0>        -0.5801
     22 N3         -0.3778   -7.6144   -3.4991 N.pl3     1 <0>        -0.6068
     23 C14        -0.3052   -7.5638   -4.8953 C.ar      1 <0>         0.1032
     24 C15         0.8972   -7.2501   -5.5179 C.ar      1 <0>        -0.0850
     25 C16         0.9735   -7.1990   -6.8967 C.ar      1 <0>        -0.1133
     26 C17        -0.1440   -7.4593   -7.6644 C.ar      1 <0>        -0.0902
     27 C18        -1.3550   -7.7755   -7.0488 C.ar      1 <0>         0.0535
     28 C19        -1.4311   -7.8322   -5.6582 C.ar      1 <0>        -0.1007
     29 C20        -2.5548   -8.0545   -7.8701 C.2       1 <0>         0.0762
     30 N4         -3.7735   -8.3625   -7.4237 N.2       1 <0>        -0.3710
     31 N5         -4.5323   -8.5286   -8.4527 N.2       1 <0>        -0.1904
     32 N6         -3.8437   -8.3386   -9.5232 N.2       1 <0>        -0.1895
     33 N7         -2.6310   -8.0415   -9.2017 N.2       1 <0>        -0.3655
     34 C21         3.3266   -0.8834   -0.3460 C.3       1 <0>        -0.1875
     35 H3          6.4395   -3.5898    0.3270 H         1 <0>         0.0655
     36 H4          6.8940   -4.4855    1.7965 H         1 <0>         0.0676
     37 H5          5.3308   -4.8048    1.0073 H         1 <0>         0.0589
     38 H6          5.9967   -1.1497    3.1313 H         1 <0>         0.0678
     39 H7          7.3121   -2.3288    2.9088 H         1 <0>         0.0754
     40 H8          7.6100   -0.4028    1.3886 H         1 <0>         0.0644
     41 H9          7.2790   -1.8848    0.4603 H         1 <0>         0.0675
     42 H10         5.2053    0.2205    1.2261 H         1 <0>         0.0697
     43 H11         5.9445    0.0389   -0.3835 H         1 <0>         0.0755
     44 H12         1.1086   -2.4432   -0.4677 H         1 <0>         0.1495
     45 H13         0.0987   -4.2182   -1.8412 H         1 <0>         0.1584
     46 H14         1.7945   -7.1714    0.7455 H         1 <0>         0.1343
     47 H15         2.8077   -5.3890    2.1070 H         1 <0>         0.1398
     48 H16        -0.0668   -7.6059   -0.9883 H         1 <0>         0.4111
     49 H17        -0.9012   -8.3063   -3.0654 H         1 <0>         0.4084
     50 H18         1.7745   -7.0452   -4.9222 H         1 <0>         0.1388
     51 H19         1.9103   -6.9544   -7.3753 H         1 <0>         0.1265
     52 H20        -0.0806   -7.4177   -8.7417 H         1 <0>         0.1322
     53 H21        -2.3654   -8.0802   -5.1765 H         1 <0>         0.1304
     54 H22         3.4964   -0.4989   -1.3517 H         1 <0>         0.0725
     55 H23         2.5151   -1.6109   -0.3674 H         1 <0>         0.0662
     56 H24         3.0595   -0.0607    0.3173 H         1 <0>         0.0916
@<TRIPOS>BOND
     1    1    2 1
     2    1   35 1
     3    1   36 1
     4    1   37 1
     5    2    3 1
     6    2    9 1
     7    2    4 1
     8    4    5 1
     9    4   38 1
    10    4   39 1
    11    5    6 1
    12    5   40 1
    13    5   41 1
    14    6    7 1
    15    6   42 1
    16    6   43 1
    17    7    8 1
    18    7    9 1
    19    7   34 1
    20    9   10 1
    21   10   11 2
    22   10   12 2
    23   10   13 1
    24   13   18 ar
    25   13   14 ar
    26   14   15 ar
    27   14   44 1
    28   15   16 ar
    29   15   45 1
    30   16   17 ar
    31   16   19 1
    32   17   18 ar
    33   17   46 1
    34   18   47 1
    35   19   20 1
    36   19   48 1
    37   20   21 2
    38   20   22 1
    39   22   23 1
    40   22   49 1
    41   23   28 ar
    42   23   24 ar
    43   24   25 ar
    44   24   50 1
    45   25   26 ar
    46   25   51 1
    47   26   27 ar
    48   26   52 1
    49   27   28 ar
    50   27   29 1
    51   28   53 1
    52   29   33 2
    53   29   30 1
    54   30   31 1
    55   31   32 2
    56   32   33 1
    57   34   54 1
    58   34   55 1
    59   34   56 1
@<TRIPOS>MOLECULE
ZINC21804367
   49    52     0     0     0
SMALL
USER_CHARGES

@<TRIPOS>ATOM
      1 C1         -0.0190    1.5466    0.0053 C.3       1 <0>        -0.1254
      2 C2          0.0139    0.0400   -0.0013 C.2       1 <0>         0.2190
      3 C3         -1.1421   -0.6613    0.0024 C.2       1 <0>        -0.2610
      4 C4         -1.1011   -2.0719   -0.0043 C.2       1 <0>         0.5677
      5 O1         -2.1362   -2.7147   -0.0015 O.2       1 <0>        -0.4785
      6 N1          0.0864   -2.7030   -0.0142 N.am      1 <0>        -0.3675
      7 C5          1.2458   -1.9906   -0.0178 C.2       1 <0>         0.5214
      8 N2          1.2094   -0.6156   -0.0165 N.pl3     1 <0>        -0.5783
      9 H1          2.0374   -0.1103   -0.0232 H         1 <0>         0.4410
     10 N3          2.2429   -2.8515   -0.0271 N.2       1 <0>        -0.5640
     11 C6          1.7628   -4.0988   -0.0297 C.2       1 <0>         0.5132
     12 N4          0.4500   -4.0567   -0.0220 N.2       1 <0>        -0.3350
     13 N5          2.5327   -5.2596   -0.0391 N.pl3     1 <0>        -0.6899
     14 C7          3.9948   -5.1688   -0.0465 C.3       1 <0>         0.2301
     15 C8          4.5842   -6.5557   -0.0559 C.2       1 <0>        -0.1791
     16 C9          4.9176   -7.3344   -1.1141 C.2       1 <0>        -0.1257
     17 C10         5.4508   -8.5884   -0.8821 C.2       1 <0>        -0.1651
     18 C11         5.6246   -9.0024    0.3969 C.2       1 <0>        -0.1605
     19 S1          5.0320   -7.5964    1.3239 S.3       1 <0>         0.0556
     20 C12        -2.4659    0.0589    0.0139 C.3       1 <0>        -0.0275
     21 C13        -2.9827    0.1991   -1.4193 C.3       1 <0>        -0.1366
     22 C14        -4.3065    0.9193   -1.4077 C.2       1 <0>         0.5192
     23 O2         -4.7891    1.2844   -0.3565 O.2       1 <0>        -0.5147
     24 N6         -4.9541    1.1576   -2.5654 N.am      1 <0>        -0.6734
     25 C15        -6.2264    1.7427   -2.5484 C.ar      1 <0>         0.1131
     26 C16        -6.5437    2.6898   -1.5844 C.ar      1 <0>        -0.0956
     27 C17        -7.7993    3.2657   -1.5703 C.ar      1 <0>        -0.1105
     28 C18        -8.7409    2.9000   -2.5147 C.ar      1 <0>        -0.1052
     29 C19        -8.4299    1.9568   -3.4767 C.ar      1 <0>        -0.1355
     30 C20        -7.1727    1.3806   -3.5006 C.ar      1 <0>         0.0703
     31 F1         -6.8667    0.4631   -4.4439 F         1 <0>        -0.1374
     32 H2          1.0004    1.9323   -0.0039 H         1 <0>         0.0856
     33 H3         -0.5500    1.9023   -0.8777 H         1 <0>         0.1041
     34 H4         -0.5312    1.8950    0.9021 H         1 <0>         0.1087
     35 H5          2.1007   -6.1281   -0.0406 H         1 <0>         0.4215
     36 H6          4.3208   -4.6294   -0.9358 H         1 <0>         0.0899
     37 H7          4.3304   -4.6374    0.8441 H         1 <0>         0.0823
     38 H8          4.7685   -6.9805   -2.1235 H         1 <0>         0.1362
     39 H9          5.7245   -9.2289   -1.7075 H         1 <0>         0.1370
     40 H10         6.0222   -9.9383    0.7607 H         1 <0>         0.1883
     41 H11        -3.1837   -0.5098    0.6050 H         1 <0>         0.0943
     42 H12        -2.3373    1.0485    0.4523 H         1 <0>         0.0924
     43 H13        -2.2649    0.7679   -2.0103 H         1 <0>         0.0987
     44 H14        -3.1113   -0.7905   -1.8576 H         1 <0>         0.1033
     45 H15        -4.5390    0.9239   -3.4104 H         1 <0>         0.4145
     46 H16        -5.8096    2.9759   -0.8458 H         1 <0>         0.1500
     47 H17        -8.0460    4.0025   -0.8203 H         1 <0>         0.1344
     48 H18        -9.7217    3.3519   -2.5006 H         1 <0>         0.1350
     49 H19        -9.1676    1.6731   -4.2127 H         1 <0>         0.1397
@<TRIPOS>BOND
     1    1    2 1
     2    1   32 1
     3    1   33 1
     4    1   34 1
     5    2    8 1
     6    2    3 2
     7    3    4 1
     8    3   20 1
     9    4    5 2
    10    4    6 am
    11    6   12 1
    12    6    7 1
    13    7    8 1
    14    7   10 2
    15    8    9 1
    16   10   11 1
    17   11   12 2
    18   11   13 1
    19   13   14 1
    20   13   35 1
    21   14   15 1
    22   14   36 1
    23   14   37 1
    24   15   19 1
    25   15   16 2
    26   16   17 1
    27   16   38 1
    28   17   18 2
    29   17   39 1
    30   18   19 1
    31   18   40 1
    32   20   21 1
    33   20   41 1
    34   20   42 1
    35   21   22 1
    36   21   43 1
    37   21   44 1
    38   22   23 2
    39   22   24 am
    40   24   25 1
    41   24   45 1
    42   25   30 ar
    43   25   26 ar
    44   26   27 ar
    45   26   46 1
    46   27   28 ar
    47   27   47 1
    48   28   29 ar
    49   28   48 1
    50   29   30 ar
    51   29   49 1
    52   30   31 1
@<TRIPOS>MOLECULE
ZINC13223272
   50    52     0     0     0
SMALL
USER_CHARGES
2-[2-[2-[[2-[(3-chloro-2-methyl-phenyl)amino]-2-oxo-ethyl]amino]-2-oxo-ethyl]sulfanyl-4-oxo-quinazolin-3-yl]acetic acid
@<TRIPOS>ATOM
      1 C1        -12.5418   -0.9774   -0.9497 C.3       1 <0>        -0.1220
      2 C2        -12.0871    0.2959   -0.2840 C.ar      1 <0>        -0.1071
      3 C3        -10.7935    0.3982    0.2105 C.ar      1 <0>         0.1599
      4 C4        -10.3766    1.5750    0.8185 C.ar      1 <0>        -0.1218
      5 C5        -11.2505    2.6385    0.9347 C.ar      1 <0>        -0.0908
      6 C6        -12.5396    2.5326    0.4468 C.ar      1 <0>        -0.1239
      7 C7        -12.9589    1.3610   -0.1595 C.ar      1 <0>        -0.0178
      8 Cl1       -14.5788    1.2320   -0.7702 Cl        1 <0>        -0.0639
      9 N1         -9.9101   -0.6803    0.0912 N.am      1 <0>        -0.6638
     10 C8         -8.5798   -0.4640    0.0831 C.2       1 <0>         0.5130
     11 O1         -8.1498    0.6701    0.0781 O.2       1 <0>        -0.5089
     12 C9         -7.6266   -1.6312    0.0802 C.3       1 <0>         0.1030
     13 N2         -6.2479   -1.1359    0.0711 N.am      1 <0>        -0.7168
     14 C10        -5.2191   -2.0065    0.0671 C.2       1 <0>         0.5386
     15 O2         -5.4346   -3.2000    0.0710 O.2       1 <0>        -0.5167
     16 C11        -3.8009   -1.4969    0.0578 C.3       1 <0>        -0.1570
     17 S1         -2.6561   -2.8988    0.0543 S.3       1 <0>         0.0983
     18 C12        -1.1185   -2.0383    0.0436 C.2       1 <0>         0.3793
     19 N3         -1.1361   -0.7282    0.0412 N.2       1 <0>        -0.5583
     20 C13         0.0025   -0.0063    0.0327 C.ar      1 <0>         0.1836
     21 C14        -0.0163    1.3917    0.0302 C.ar      1 <0>        -0.1235
     22 C15         1.1618    2.0838    0.0219 C.ar      1 <0>        -0.0742
     23 C16         2.3813    1.4189    0.0158 C.ar      1 <0>        -0.1567
     24 C17         2.4323    0.0522    0.0181 C.ar      1 <0>        -0.0337
     25 C18         1.2455   -0.6793    0.0265 C.ar      1 <0>        -0.2028
     26 C19         1.2391   -2.1484    0.0298 C.2       1 <0>         0.5556
     27 O3          2.2770   -2.7845    0.0252 O.2       1 <0>        -0.5068
     28 N4          0.0359   -2.7681    0.0385 N.am      1 <0>        -0.4946
     29 C20        -0.0286   -4.2316    0.0421 C.3       1 <0>         0.0379
     30 C21        -0.0420   -4.7303    1.4642 C.2       1 <0>         0.4623
     31 O4         -0.0018   -3.9439    2.3806 O.co2     1 <0>        -0.6194
     32 H1        -12.9699   -1.6453   -0.2022 H         1 <0>         0.0784
     33 H2        -13.2945   -0.7449   -1.7029 H         1 <0>         0.0799
     34 H3        -11.6897   -1.4630   -1.4254 H         1 <0>         0.0686
     35 H4         -9.3699    1.6586    1.2006 H         1 <0>         0.1528
     36 H5        -10.9263    3.5538    1.4075 H         1 <0>         0.1369
     37 H6        -13.2209    3.3655    0.5392 H         1 <0>         0.1345
     38 H7        -10.2550   -1.5836    0.0144 H         1 <0>         0.4173
     39 H8         -7.7999   -2.2396   -0.8075 H         1 <0>         0.1072
     40 H9         -7.7897   -2.2357    0.9725 H         1 <0>         0.1095
     41 H10        -6.0756   -0.1813    0.0680 H         1 <0>         0.4158
     42 H11        -3.6276   -0.8885    0.9455 H         1 <0>         0.1324
     43 H12        -3.6378   -0.8924   -0.8344 H         1 <0>         0.1305
     44 H13        -0.9572    1.9219    0.0303 H         1 <0>         0.1338
     45 H14         1.1445    3.1636    0.0196 H         1 <0>         0.1274
     46 H15         3.2995    1.9875    0.0089 H         1 <0>         0.1267
     47 H16         3.3849   -0.4566    0.0137 H         1 <0>         0.1336
     48 H17        -0.9369   -4.5565   -0.4654 H         1 <0>         0.1017
     49 H18         0.8413   -4.6350   -0.4762 H         1 <0>         0.1112
     50 O5         -0.0987   -6.0482    1.7127 O.co2     1 <0>        -0.7491
@<TRIPOS>BOND
     1    1    2 1
     2    1   32 1
     3    1   33 1
     4    1   34 1
     5    2    7 ar
     6    2    3 ar
     7    3    4 ar
     8    3    9 1
     9    4    5 ar
    10    4   35 1
    11    5    6 ar
    12    5   36 1
    13    6    7 ar
    14    6   37 1
    15    7    8 1
    16    9   10 am
    17    9   38 1
    18   10   11 2
    19   10   12 1
    20   12   13 1
    21   12   39 1
    22   12   40 1
    23   13   14 am
    24   13   41 1
    25   14   15 2
    26   14   16 1
    27   16   17 1
    28   16   42 1
    29   16   43 1
    30   17   18 1
    31   18   28 1
    32   18   19 2
    33   19   20 1
    34   20   25 ar
    35   20   21 ar
    36   21   22 ar
    37   21   44 1
    38   22   23 ar
    39   22   45 1
    40   23   24 ar
    41   23   46 1
    42   24   25 ar
    43   24   47 1
    44   25   26 1
    45   26   27 2
    46   26   28 am
    47   28   29 1
    48   29   30 1
    49   29   48 1
    50   29   49 1
    51   30   31 2
    52   30   50 1
@<TRIPOS>MOLECULE
ZINC20025993
   64    66     0     0     0
SMALL
USER_CHARGES
ethyl (3R,4S)-5-cyano-6-[2-[(2,6-dimethylphenyl)amino]-2-oxo-ethyl]sulfanyl-4-(2-ethoxyphenyl)-2-oxo-3,4-dihydro-1H-pyridine-3-carboxylate
@<TRIPOS>ATOM
      1 C1         -0.5987    5.2371    6.8654 C.3       1 <0>        -0.1536
      2 C2         -1.2587    3.8840    6.5924 C.3       1 <0>         0.0546
      3 O1         -0.8700    3.4167    5.2991 O.3       1 <0>        -0.3056
      4 C3         -1.3726    2.2191    4.8990 C.ar      1 <0>         0.1278
      5 C4         -2.2267    1.5107    5.7320 C.ar      1 <0>        -0.2112
      6 C5         -2.7316    0.2911    5.3254 C.ar      1 <0>        -0.1008
      7 C6         -2.3912   -0.2214    4.0869 C.ar      1 <0>        -0.1577
      8 C7         -1.5446    0.4850    3.2530 C.ar      1 <0>        -0.0781
      9 C8         -1.0368    1.7054    3.6550 C.ar      1 <0>        -0.0480
     10 C9         -0.1140    2.4749    2.7455 C.3       1 <0>         0.0823
     11 H1          0.1896    3.4059    3.2465 H         1 <0>         0.0885
     12 C10        -0.8357    2.7888    1.4337 C.2       1 <0>        -0.4618
     13 C11        -0.9748    1.5304    0.6177 C.2       1 <0>         0.5573
     14 O2         -1.9566    1.3678   -0.0750 O.3       1 <0>        -0.5389
     15 N1         -0.0198    0.5832    0.6558 N.pl3     1 <0>        -0.6898
     16 C12         1.1052    0.7477    1.4363 C.2       1 <0>         0.1397
     17 C13         1.1123    1.6480    2.4577 C.2       1 <0>        -0.0907
     18 C14         2.2873    1.8090    3.2602 C.1       1 <0>         0.2766
     19 N2          3.2194    1.9366    3.8969 N.1       1 <0>        -0.4494
     20 S1          2.5443   -0.2150    1.1095 S.3       1 <0>        -0.0152
     21 C15         1.9582   -1.1882   -0.2995 C.3       1 <0>        -0.1695
     22 C16         3.0550   -2.1118   -0.7631 C.2       1 <0>         0.5328
     23 O3          4.1274   -2.1121   -0.1966 O.2       1 <0>        -0.4928
     24 N3          2.8442   -2.9376   -1.8072 N.am      1 <0>        -0.6791
     25 C17         3.8856   -3.7402   -2.2858 C.ar      1 <0>         0.1404
     26 C18         5.1095   -3.1708   -2.6120 C.ar      1 <0>        -0.0665
     27 C19         6.1376   -3.9668   -3.0778 C.ar      1 <0>        -0.1157
     28 C20         5.9452   -5.3275   -3.2316 C.ar      1 <0>        -0.1193
     29 C21         4.7258   -5.8966   -2.9135 C.ar      1 <0>        -0.1177
     30 C22         3.6958   -5.1071   -2.4410 C.ar      1 <0>        -0.0932
     31 C23         2.3675   -5.7284   -2.0936 C.3       1 <0>        -0.1132
     32 C24         5.3177   -1.6869   -2.4516 C.3       1 <0>        -0.1474
     33 C25        -0.0389    3.8015    0.6522 C.2       1 <0>         0.4766
     34 O4          0.9995    4.2282    1.0989 O.2       1 <0>        -0.5808
     35 O5         -0.4828    4.2295   -0.5400 O.3       1 <0>        -0.3607
     36 C26         0.3360    5.2054   -1.2367 C.3       1 <0>         0.0587
     37 C27        -0.3262    5.5704   -2.5668 C.3       1 <0>        -0.1478
     38 H2         -0.8979    5.5968    7.8609 H         1 <0>         0.0725
     39 H3         -0.9187    5.9618    6.1022 H         1 <0>         0.0685
     40 H4          0.4950    5.1255    6.8293 H         1 <0>         0.0645
     41 H5         -0.9387    3.1593    7.3556 H         1 <0>         0.0547
     42 H6         -2.3524    3.9956    6.6285 H         1 <0>         0.0592
     43 H7         -2.4932    1.9106    6.6992 H         1 <0>         0.1189
     44 H8         -3.3932   -0.2627    5.9751 H         1 <0>         0.1139
     45 H9         -2.7870   -1.1752    3.7708 H         1 <0>         0.1128
     46 H10        -1.2802    0.0827    2.2862 H         1 <0>         0.1242
     47 H11        -0.1316   -0.3348    0.0602 H         1 <0>         0.3929
     48 H12         1.0829   -1.7815    0.0034 H         1 <0>         0.1230
     49 H13         1.6767   -0.5122   -1.1203 H         1 <0>         0.1250
     50 H14         1.8534   -2.9806   -2.2831 H         1 <0>         0.4335
     51 H15         7.0912   -3.5252   -3.3271 H         1 <0>         0.1235
     52 H16         6.7492   -5.9471   -3.6006 H         1 <0>         0.1224
     53 H17         4.5787   -6.9597   -3.0344 H         1 <0>         0.1240
     54 H18         2.4091   -6.8115   -2.2812 H         1 <0>         0.0678
     55 H19         1.5788   -5.2787   -2.7146 H         1 <0>         0.0683
     56 H20         2.1452   -5.5485   -1.0314 H         1 <0>         0.0701
     57 H21         6.3413   -1.4251   -2.7578 H         1 <0>         0.0610
     58 H22         5.1671   -1.4073   -1.3984 H         1 <0>         0.1119
     59 H23         4.5967   -1.1453   -3.0815 H         1 <0>         0.0622
     60 H24         0.4366    6.1088   -0.6172 H         1 <0>         0.0557
     61 H25         1.3318    4.7790   -1.4278 H         1 <0>         0.0497
     62 H26         0.2942    6.3097   -3.0945 H         1 <0>         0.0658
     63 H27        -1.3220    5.9968   -2.3758 H         1 <0>         0.0641
     64 H28        -0.4268    4.6670   -3.1863 H         1 <0>         0.0593
@<TRIPOS>BOND
     1    1    2 1
     2    1   38 1
     3    1   39 1
     4    1   40 1
     5    2    3 1
     6    2   41 1
     7    2   42 1
     8    3    4 1
     9    4    9 ar
    10    4    5 ar
    11    5    6 ar
    12    5   43 1
    13    6    7 ar
    14    6   44 1
    15    7    8 ar
    16    7   45 1
    17    8    9 ar
    18    8   46 1
    19    9   10 1
    20   10   11 1
    21   10   17 1
    22   10   12 1
    23   12   13 2
    24   12   33 1
    25   13   14 1
    26   13   15 1
    27   15   16 1
    28   15   47 1
    29   16   17 2
    30   16   20 1
    31   17   18 1
    32   18   19 3
    33   20   21 1
    34   21   22 1
    35   21   48 1
    36   21   49 1
    37   22   23 2
    38   22   24 am
    39   24   25 1
    40   24   50 1
    41   25   30 ar
    42   25   26 ar
    43   26   27 ar
    44   26   32 1
    45   27   28 ar
    46   27   51 1
    47   28   29 ar
    48   28   52 1
    49   29   30 ar
    50   29   53 1
    51   30   31 1
    52   31   54 1
    53   31   55 1
    54   31   56 1
    55   32   57 1
    56   32   58 1
    57   32   59 1
    58   33   34 2
    59   33   35 1
    60   35   36 1
    61   36   37 1
    62   36   60 1
    63   36   61 1
    64   37   62 1
    65   37   63 1
    66   37   64 1
@<TRIPOS>MOLECULE
ZINC38798770
   51    54     0     0     0
SMALL
USER_CHARGES

@<TRIPOS>ATOM
      1 C1         -0.4050    1.4671   -0.1924 C.2       1 <0>        -0.1996
      2 C2         -0.5190    0.1670   -0.3057 C.2       1 <0>        -0.1327
      3 C3          0.7106   -0.6838   -0.4937 C.3       1 <0>         0.1475
      4 N1          0.7541   -1.7155    0.5454 N.pl3     1 <0>        -0.4800
      5 C4          1.3385   -1.6217    1.7783 C.2       1 <0>         0.1295
      6 N2          1.1473   -2.7584    2.3857 N.2       1 <0>        -0.2868
      7 N3          0.4871   -3.5586    1.6270 N.2       1 <0>        -0.3448
      8 C5          0.2146   -2.9684    0.4863 C.2       1 <0>         0.3785
      9 S1         -0.6760   -3.6628   -0.8661 S.3       1 <0>        -0.8190
     10 C6          2.0687   -0.4252    2.3317 C.3       1 <0>         0.0318
     11 C7          1.0941    0.4674    3.0559 C.2       1 <0>         0.2037
     12 N4         -0.1217    0.1603    3.1308 N.2       1 <0>        -0.4869
     13 C8         -1.0749    1.0378    3.8403 C.3       1 <0>         0.3808
     14 H1         -1.6822    1.6088    3.1380 H         1 <0>         0.1383
     15 S2          0.0906    2.1359    4.7605 S.3       1 <0>        -0.3480
     16 C9          1.5648    1.7557    3.7164 C.3       1 <0>        -0.0716
     17 N5         -1.9174    0.2696    4.7602 N.am      1 <0>        -0.6908
     18 C10        -3.0364    0.8218    5.2696 C.2       1 <0>         0.5705
     19 O1         -3.3466    1.9574    4.9657 O.2       1 <0>        -0.5273
     20 C11        -3.8851    0.0479    6.1964 C.ar      1 <0>        -0.1480
     21 C12        -3.5268   -1.2555    6.5513 C.ar      1 <0>        -0.0563
     22 C13        -4.3203   -1.9745    7.4163 C.ar      1 <0>        -0.1256
     23 C14        -5.4783   -1.4048    7.9372 C.ar      1 <0>         0.1749
     24 C15        -5.8378   -0.1072    7.5858 C.ar      1 <0>        -0.1535
     25 C16        -5.0458    0.6190    6.7255 C.ar      1 <0>        -0.0336
     26 N6         -6.2795   -2.1354    8.8121 N.am      1 <0>        -0.6677
     27 C17        -5.7176   -3.0126    9.6673 C.2       1 <0>         0.6065
     28 O2         -4.5059   -3.0974    9.7432 O.2       1 <0>        -0.4976
     29 C18        -6.5657   -3.8642   10.5055 C.2       1 <0>        -0.2630
     30 C19        -6.1936   -4.8163   11.4429 C.2       1 <0>        -0.0595
     31 C20        -7.2259   -5.4627   12.0791 C.2       1 <0>        -0.1848
     32 C21        -8.5033   -5.1385   11.7596 C.2       1 <0>        -0.2174
     33 S3         -8.3446   -3.9411   10.5919 S.3       1 <0>         0.2093
     34 H2          0.5702    1.9292   -0.2336 H         1 <0>         0.0923
     35 H3         -1.2866    2.0771   -0.0621 H         1 <0>         0.0959
     36 H4         -1.4943   -0.2952   -0.2644 H         1 <0>         0.1142
     37 H5          0.6782   -1.1574   -1.4749 H         1 <0>         0.1065
     38 H6          1.6000   -0.0578   -0.4216 H         1 <0>         0.0783
     39 H7          2.8401   -0.7593    3.0256 H         1 <0>         0.1213
     40 H8          2.5304    0.1287    1.5143 H         1 <0>         0.1018
     41 H9          2.4514    1.5868    4.3275 H         1 <0>         0.1281
     42 H10         1.7383    2.5390    2.9785 H         1 <0>         0.1212
     43 H11        -1.6699   -0.6363    5.0027 H         1 <0>         0.4123
     44 H12        -2.6285   -1.6983    6.1471 H         1 <0>         0.1333
     45 H13        -4.0442   -2.9819    7.6906 H         1 <0>         0.1436
     46 H14        -6.7370    0.3321    7.9918 H         1 <0>         0.1352
     47 H15        -5.3232    1.6275    6.4564 H         1 <0>         0.1427
     48 H16        -7.2417   -2.0127    8.8057 H         1 <0>         0.4118
     49 H17        -5.1584   -5.0358   11.6589 H         1 <0>         0.1527
     50 H18        -7.0227   -6.2188   12.8231 H         1 <0>         0.1412
     51 H19        -9.4143   -5.5523   12.1661 H         1 <0>         0.1910
@<TRIPOS>BOND
     1    1    2 2
     2    1   34 1
     3    1   35 1
     4    2    3 1
     5    2   36 1
     6    3   37 1
     7    3   38 1
     8    3    4 1
     9    4    8 1
    10    4    5 1
    11    5   10 1
    12    5    6 2
    13    6    7 1
    14    7    8 2
    15    8    9 1
    16   10   11 1
    17   10   39 1
    18   10   40 1
    19   11   16 1
    20   11   12 2
    21   12   13 1
    22   13   14 1
    23   13   15 1
    24   13   17 1
    25   15   16 1
    26   16   41 1
    27   16   42 1
    28   17   18 am
    29   17   43 1
    30   18   19 2
    31   18   20 1
    32   20   25 ar
    33   20   21 ar
    34   21   22 ar
    35   21   44 1
    36   22   23 ar
    37   22   45 1
    38   23   24 ar
    39   23   26 1
    40   24   25 ar
    41   24   46 1
    42   25   47 1
    43   26   27 am
    44   26   48 1
    45   27   28 2
    46   27   29 1
    47   29   33 1
    48   29   30 2
    49   30   31 1
    50   30   49 1
    51   31   32 2
    52   31   50 1
    53   32   33 1
    54   32   51 1
@<TRIPOS>MOLECULE
ZINC45873552
   54    57     0     0     0
SMALL
USER_CHARGES

@<TRIPOS>ATOM
      1 C1          2.1848    0.2879   -0.7148 C.3       1 <0>         0.0754
      2 N1          1.0522   -0.5639   -0.3435 N.am      1 <0>        -0.6281
      3 C2          1.1165   -1.3797    0.8717 C.3       1 <0>         0.1221
      4 C3          0.5706   -0.5769    2.0543 C.3       1 <0>         0.0411
      5 O1         -0.8187   -0.3123    1.8497 O.3       1 <0>        -0.2756
      6 C4         -1.4607    0.3968    2.8158 C.ar      1 <0>         0.1043
      7 C5         -0.7668    0.8334    3.9340 C.ar      1 <0>        -0.1901
      8 C6         -1.4213    1.5539    4.9148 C.ar      1 <0>        -0.0938
      9 C7         -2.7676    1.8399    4.7831 C.ar      1 <0>        -0.1380
     10 C8         -3.4634    1.4060    3.6699 C.ar      1 <0>        -0.1198
     11 C9         -2.8119    0.6901    2.6818 C.ar      1 <0>         0.0711
     12 F1         -3.4901    0.2712    1.5910 F         1 <0>        -0.1235
     13 C10        -0.0490   -0.5970   -1.1199 C.2       1 <0>         0.5959
     14 O2         -1.0207   -1.2388   -0.7698 O.2       1 <0>        -0.5031
     15 C11        -0.0755    0.1450   -2.3936 C.ar      1 <0>        -0.2034
     16 C12         0.1188    1.5287   -2.4054 C.ar      1 <0>        -0.0490
     17 C13         0.0929    2.2161   -3.5988 C.ar      1 <0>        -0.2309
     18 C14        -0.1257    1.5427   -4.7905 C.ar      1 <0>        -0.0492
     19 C15        -0.3197    0.1769   -4.7956 C.ar      1 <0>        -0.2638
     20 C16        -0.2903   -0.5349   -3.6025 C.ar      1 <0>         0.3225
     21 N2         -0.4791   -1.9107   -3.6056 N.2       1 <0>        -1.0658
     22 S1         -0.7323   -2.7085   -5.0345 S.o2      1 <0>         2.6050
     23 O3         -1.9842   -2.2590   -5.5344 O.2       1 <0>        -1.0239
     24 O4          0.4713   -2.5955   -5.7815 O.2       1 <0>        -1.0257
     25 C17        -0.9276   -4.4169   -4.6499 C.ar      1 <0>        -0.6037
     26 C18         0.1803   -5.2462   -4.6130 C.ar      1 <0>        -0.0115
     27 C19         0.0373   -6.5865   -4.3124 C.ar      1 <0>        -0.1298
     28 C20        -1.2215   -7.1037   -4.0465 C.ar      1 <0>         0.1236
     29 C21        -2.3389   -6.2673   -4.0838 C.ar      1 <0>         0.0620
     30 C22        -2.1847   -4.9217   -4.3809 C.ar      1 <0>         0.0017
     31 N3         -3.4441   -7.0582   -3.7785 N.am      1 <0>        -0.6380
     32 H1         -4.3637   -6.7536   -3.7283 H         1 <0>         0.4369
     33 C23        -3.0185   -8.3176   -3.5654 C.2       1 <0>         0.6856
     34 O5         -3.7331   -9.2595   -3.2774 O.2       1 <0>        -0.5628
     35 N4         -1.6823   -8.3769   -3.7198 N.am      1 <0>        -0.6418
     36 H2         -1.1341   -9.1709   -3.6205 H         1 <0>         0.4346
     37 H3          2.9048   -0.2950   -1.2892 H         1 <0>         0.0501
     38 H4          1.8291    1.1228   -1.3184 H         1 <0>         0.0859
     39 H5          2.6634    0.6695    0.1872 H         1 <0>         0.0543
     40 H6          0.5178   -2.2804    0.7367 H         1 <0>         0.0930
     41 H7          2.1519   -1.6577    1.0682 H         1 <0>         0.0930
     42 H8          0.7001   -1.1495    2.9727 H         1 <0>         0.0662
     43 H9          1.1121    0.3657    2.1344 H         1 <0>         0.0617
     44 H10         0.2847    0.6102    4.0385 H         1 <0>         0.1343
     45 H11        -0.8805    1.8939    5.7856 H         1 <0>         0.1278
     46 H12        -3.2767    2.4029    5.5513 H         1 <0>         0.1301
     47 H13        -4.5152    1.6301    3.5697 H         1 <0>         0.1391
     48 H14         0.2888    2.0586   -1.4798 H         1 <0>         0.1078
     49 H15         0.2432    3.2856   -3.6060 H         1 <0>         0.1059
     50 H16        -0.1446    2.0908   -5.7208 H         1 <0>         0.1052
     51 H17        -0.4897   -0.3404   -5.7283 H         1 <0>         0.1021
     52 H18         1.1606   -4.8433   -4.8204 H         1 <0>         0.1486
     53 H19         0.9039   -7.2305   -4.2849 H         1 <0>         0.1369
     54 H20        -3.0461   -4.2708   -4.4063 H         1 <0>         0.1473
@<TRIPOS>BOND
     1    1    2 1
     2    1   37 1
     3    1   38 1
     4    1   39 1
     5    2    3 1
     6    2   13 am
     7    3    4 1
     8    3   40 1
     9    3   41 1
    10    4    5 1
    11    4   42 1
    12    4   43 1
    13    5    6 1
    14    6   11 ar
    15    6    7 ar
    16    7    8 ar
    17    7   44 1
    18    8    9 ar
    19    8   45 1
    20    9   10 ar
    21    9   46 1
    22   10   11 ar
    23   10   47 1
    24   11   12 1
    25   13   14 2
    26   13   15 1
    27   15   20 ar
    28   15   16 ar
    29   16   17 ar
    30   16   48 1
    31   17   18 ar
    32   17   49 1
    33   18   19 ar
    34   18   50 1
    35   19   20 ar
    36   19   51 1
    37   20   21 1
    38   21   22 1
    39   22   23 2
    40   22   24 2
    41   22   25 1
    42   25   30 ar
    43   25   26 ar
    44   26   27 ar
    45   26   52 1
    46   27   28 ar
    47   27   53 1
    48   28   35 1
    49   28   29 ar
    50   29   30 ar
    51   29   31 1
    52   30   54 1
    53   31   32 1
    54   31   33 am
    55   33   34 2
    56   33   35 am
    57   35   36 1
@<TRIPOS>MOLECULE
ZINC59403048
   47    48     0     0     0
SMALL
USER_CHARGES

@<TRIPOS>ATOM
      1 C1         -0.0135    1.5205   -0.0032 C.3       1 <0>        -0.1587
      2 C2          0.0042   -0.0094   -0.0015 C.3       1 <0>         0.1289
      3 H1          0.5148   -0.3678   -0.8953 H         1 <0>         0.1167
      4 C3          0.7305   -0.5020    1.2235 C.2       1 <0>         0.5007
      5 O1          0.1558   -1.2052    2.0276 O.2       1 <0>        -0.5227
      6 N1          2.0187   -0.1613    1.4257 N.am      1 <0>        -0.6471
      7 C4          2.6653   -0.5374    2.6108 C.ar      1 <0>         0.0444
      8 C5          2.3681   -1.7557    3.2066 C.ar      1 <0>        -0.0779
      9 C6          3.0043   -2.1288    4.3751 C.ar      1 <0>        -0.2270
     10 C7          3.9413   -1.2866    4.9552 C.ar      1 <0>         0.2665
     11 C8          4.2414   -0.0639    4.3589 C.ar      1 <0>         0.0732
     12 C9          3.6068    0.3059    3.1852 C.ar      1 <0>        -0.1829
     13 O2          5.1598    0.7633    4.9262 O.3       1 <0>        -0.2909
     14 C10         5.4174    2.0009    4.2600 C.3       1 <0>         0.0288
     15 N2          4.5857   -1.6653    6.1412 N.2       1 <0>        -1.0807
     16 S1          4.2283   -3.1187    6.8500 S.o2      1 <0>         2.5218
     17 O3          2.8613   -3.0135    7.2235 O.2       1 <0>        -1.0305
     18 O4          4.6485   -4.0951    5.9070 O.2       1 <0>        -1.0313
     19 C11         5.2766   -3.1864    8.3288 C.3       1 <0>        -0.6357
     20 N3         -1.3713   -0.5136    0.0105 N.am      1 <0>        -0.7042
     21 C12        -2.0486   -0.6514   -1.1465 C.2       1 <0>         0.5594
     22 O5         -1.5182   -0.3573   -2.2000 O.2       1 <0>        -0.5125
     23 C13        -3.4360   -1.1601   -1.1344 C.ar      1 <0>        -0.1165
     24 C14        -4.0502   -1.4934    0.0745 C.ar      1 <0>        -0.0673
     25 C15        -5.3451   -1.9676    0.0796 C.ar      1 <0>        -0.1095
     26 C16        -6.0375   -2.1140   -1.1098 C.ar      1 <0>        -0.0743
     27 C17        -5.4365   -1.7866   -2.3125 C.ar      1 <0>        -0.0448
     28 C18        -4.1408   -1.3041   -2.3316 C.ar      1 <0>         0.0169
     29 Cl1        -3.3897   -0.8860   -3.8398 Cl        1 <0>        -0.0089
     30 Cl2        -6.3132   -1.9749   -3.7990 Cl        1 <0>        -0.0437
     31 H2          1.0099    1.8957   -0.0121 H         1 <0>         0.0741
     32 H3         -0.5389    1.8768   -0.8893 H         1 <0>         0.0737
     33 H4         -0.5241    1.8789    0.8906 H         1 <0>         0.0655
     34 H5          2.4983    0.3443    0.7510 H         1 <0>         0.4015
     35 H6          1.6385   -2.4125    2.7564 H         1 <0>         0.1204
     36 H7          2.7715   -3.0768    4.8373 H         1 <0>         0.1118
     37 H8          3.8410    1.2516    2.7191 H         1 <0>         0.1146
     38 H9          5.7848    1.8020    3.2532 H         1 <0>         0.0412
     39 H10         4.4965    2.5812    4.2027 H         1 <0>         0.0409
     40 H11         6.1674    2.5636    4.8159 H         1 <0>         0.0851
     41 H12         5.0361   -2.3486    8.9834 H         1 <0>         0.1150
     42 H13         5.0991   -4.1230    8.8574 H         1 <0>         0.1000
     43 H14         6.3244   -3.1283    8.0344 H         1 <0>         0.1149
     44 H15        -1.7945   -0.7483    0.8512 H         1 <0>         0.4099
     45 H16        -3.5119   -1.3804    1.0039 H         1 <0>         0.1458
     46 H17        -5.8202   -2.2258    1.0144 H         1 <0>         0.1478
     47 H18        -7.0514   -2.4859   -1.0993 H         1 <0>         0.1474
@<TRIPOS>BOND
     1    1    2 1
     2    1   31 1
     3    1   32 1
     4    1   33 1
     5    2    3 1
     6    2    4 1
     7    2   20 1
     8    4    5 2
     9    4    6 am
    10    6    7 1
    11    6   34 1
    12    7   12 ar
    13    7    8 ar
    14    8    9 ar
    15    8   35 1
    16    9   10 ar
    17    9   36 1
    18   10   11 ar
    19   10   15 1
    20   11   12 ar
    21   11   13 1
    22   12   37 1
    23   13   14 1
    24   14   38 1
    25   14   39 1
    26   14   40 1
    27   15   16 1
    28   16   17 2
    29   16   18 2
    30   16   19 1
    31   19   41 1
    32   19   42 1
    33   19   43 1
    34   20   21 am
    35   20   44 1
    36   21   22 2
    37   21   23 1
    38   23   28 ar
    39   23   24 ar
    40   24   25 ar
    41   24   45 1
    42   25   26 ar
    43   25   46 1
    44   26   27 ar
    45   26   47 1
    46   27   28 ar
    47   27   30 1
    48   28   29 1
@<TRIPOS>MOLECULE
ZINC13235179
   47    49     0     0     0
SMALL
USER_CHARGES
(2S)-2-[2-(2,6-dichlorophenoxy)ethylcarbamoylamino]-3-(1H-indol-3-yl)propanoic acid
@<TRIPOS>ATOM
      1 C1          0.3327   -2.3207   -2.8162 C.ar      1 <0>        -0.1464
      2 C2          0.3116   -2.1677   -4.1959 C.ar      1 <0>        -0.1024
      3 C3         -0.4558   -1.1854   -4.7822 C.ar      1 <0>        -0.1327
      4 C4         -1.2093   -0.3295   -3.9852 C.ar      1 <0>         0.0942
      5 C5         -1.1824   -0.4869   -2.5876 C.ar      1 <0>        -0.0916
      6 C6         -0.4031   -1.4941   -2.0149 C.ar      1 <0>        -0.0673
      7 C7         -2.0672    0.5476   -2.0466 C.2       1 <0>        -0.1494
      8 C8         -2.5465    1.2400   -3.0921 C.2       1 <0>         0.0449
      9 N1         -2.0448    0.7303   -4.2586 N.pl3     1 <0>        -0.5979
     10 H1         -2.2478    1.0654   -5.1459 H         1 <0>         0.4117
     11 C9         -2.3758    0.7923   -0.5920 C.3       1 <0>        -0.0398
     12 C10        -1.2896    1.6810    0.0173 C.3       1 <0>         0.1295
     13 H2         -1.1985    2.5963   -0.5676 H         1 <0>         0.0865
     14 C11        -1.6608    2.0266    1.4364 C.2       1 <0>         0.4578
     15 O1         -0.9322    1.7082    2.3461 O.co2     1 <0>        -0.6282
     16 N2         -0.0111    0.9658    0.0074 N.am      1 <0>        -0.7086
     17 C12         1.1468    1.6555   -0.0000 C.2       1 <0>         0.7132
     18 O2          1.1303    2.8713    0.0067 O.2       1 <0>        -0.5966
     19 N3          2.3230    0.9976   -0.0148 N.am      1 <0>        -0.7487
     20 C13         3.5816    1.7473   -0.0228 C.3       1 <0>         0.1488
     21 C14         4.7579    0.7690   -0.0392 C.3       1 <0>         0.0552
     22 O3          4.7483    0.0332   -1.2642 O.3       1 <0>        -0.3115
     23 C15         5.7348   -0.8856   -1.4400 C.ar      1 <0>         0.1191
     24 C16         6.9284   -0.5171   -2.0448 C.ar      1 <0>        -0.0481
     25 C17         7.9321   -1.4523   -2.2171 C.ar      1 <0>        -0.0966
     26 C18         7.7432   -2.7562   -1.7979 C.ar      1 <0>        -0.1037
     27 C19         6.5531   -3.1275   -1.2002 C.ar      1 <0>        -0.0953
     28 C20         5.5480   -2.1952   -1.0202 C.ar      1 <0>        -0.0474
     29 Cl1         4.0537   -2.6624   -0.2702 Cl        1 <0>        -0.0375
     30 Cl2         7.1635    1.1180   -2.5785 Cl        1 <0>        -0.0426
     31 H3          0.9352   -3.0996   -2.3727 H         1 <0>         0.1169
     32 H4          0.8983   -2.8292   -4.8161 H         1 <0>         0.1186
     33 H5         -0.4639   -1.0731   -5.8563 H         1 <0>         0.1135
     34 H6         -0.3818   -1.6191   -0.9424 H         1 <0>         0.1146
     35 H7         -3.2276    2.0753   -3.0227 H         1 <0>         0.1707
     36 H8         -2.4062   -0.1596   -0.0619 H         1 <0>         0.0674
     37 H9         -3.3426    1.2881   -0.5041 H         1 <0>         0.0955
     38 H10         0.0021   -0.0041    0.0020 H         1 <0>         0.3835
     39 H11         2.3361    0.0277   -0.0201 H         1 <0>         0.3925
     40 H12         3.6224    2.3795   -0.9098 H         1 <0>         0.0740
     41 H13         3.6393    2.3699    0.8701 H         1 <0>         0.0862
     42 H14         5.6927    1.3233    0.0444 H         1 <0>         0.0726
     43 H15         4.6683    0.0790    0.7998 H         1 <0>         0.0654
     44 H16         8.8630   -1.1650   -2.6833 H         1 <0>         0.1429
     45 H17         8.5268   -3.4862   -1.9378 H         1 <0>         0.1438
     46 H18         6.4082   -4.1468   -0.8740 H         1 <0>         0.1438
     47 O4         -2.8010    2.6882    1.6897 O.co2     1 <0>        -0.7704
@<TRIPOS>BOND
     1    1    6 ar
     2    1    2 ar
     3    1   31 1
     4    2    3 ar
     5    2   32 1
     6    3    4 ar
     7    3   33 1
     8    4    9 1
     9    4    5 ar
    10    5    6 ar
    11    5    7 1
    12    6   34 1
    13    7    8 2
    14    7   11 1
    15    8    9 1
    16    8   35 1
    17    9   10 1
    18   11   12 1
    19   11   36 1
    20   11   37 1
    21   12   13 1
    22   12   14 1
    23   12   16 1
    24   14   15 2
    25   14   47 1
    26   16   17 am
    27   16   38 1
    28   17   18 2
    29   17   19 am
    30   19   20 1
    31   19   39 1
    32   20   21 1
    33   20   40 1
    34   20   41 1
    35   21   22 1
    36   21   42 1
    37   21   43 1
    38   22   23 1
    39   23   28 ar
    40   23   24 ar
    41   24   25 ar
    42   24   30 1
    43   25   26 ar
    44   25   44 1
    45   26   27 ar
    46   26   45 1
    47   27   28 ar
    48   27   46 1
    49   28   29 1
@<TRIPOS>MOLECULE
ZINC23145237
   47    49     0     0     0
SMALL
USER_CHARGES

@<TRIPOS>ATOM
      1 C1          1.0708   -0.4546   -0.7664 C.ar      1 <0>        -0.0824
      2 C2          2.2562    0.2535   -0.7800 C.ar      1 <0>        -0.1008
      3 C3          2.3791    1.4153   -0.0319 C.ar      1 <0>         0.0935
      4 C4          1.3114    1.8664    0.7303 C.ar      1 <0>        -0.1694
      5 C5          0.1256    1.1590    0.7451 C.ar      1 <0>        -0.0991
      6 C6          0.0017   -0.0036   -0.0037 C.ar      1 <0>         0.1279
      7 N1         -1.2015   -0.7214    0.0101 N.am      1 <0>        -0.6629
      8 C7         -1.1861   -2.0646   -0.0990 C.2       1 <0>         0.5349
      9 O1         -0.1294   -2.6599   -0.1128 O.2       1 <0>        -0.4996
     10 C8         -2.4819   -2.8270   -0.2037 C.3       1 <0>        -0.1438
     11 S1         -2.1303   -4.6016   -0.3370 S.3       1 <0>         0.0838
     12 C9         -3.7240   -5.3445   -0.4499 C.2       1 <0>         0.3604
     13 N2         -3.8253   -6.6983   -0.5580 N.am      1 <0>        -0.6123
     14 H1         -3.0254   -7.2467   -0.5725 H         1 <0>         0.4226
     15 C10        -5.0434   -7.2743   -0.6446 C.2       1 <0>         0.5330
     16 O2         -5.1528   -8.4857   -0.7415 O.2       1 <0>        -0.5300
     17 C11        -6.1833   -6.4518   -0.6203 C.2       1 <0>        -0.2769
     18 C12        -6.0204   -5.1009   -0.5103 C.2       1 <0>         0.2105
     19 N3         -4.7990   -4.5805   -0.4229 N.2       1 <0>        -0.5384
     20 C13        -7.2265   -4.1978   -0.4826 C.3       1 <0>        -0.0954
     21 C14        -7.6036   -3.9070    0.9472 C.2       1 <0>         0.5255
     22 O3         -6.9567   -4.3859    1.8543 O.2       1 <0>        -0.5247
     23 N4         -8.6597   -3.1146    1.2177 N.am      1 <0>        -0.7024
     24 C15        -9.0263   -2.8319    2.6077 C.3       1 <0>         0.0770
     25 C16       -10.5113   -2.8877    2.9720 C.3       1 <0>        -0.1919
     26 C17        -9.7946   -1.5386    2.8866 C.3       1 <0>        -0.1874
     27 O4          3.5467    2.1118   -0.0453 O.3       1 <0>        -0.3089
     28 C18         3.6032    3.2989    0.7483 C.3       1 <0>         0.6039
     29 F1          3.3746    2.9743    2.0897 F         1 <0>        -0.1644
     30 F2          4.8663    3.8863    0.6194 F         1 <0>        -0.1294
     31 F3          2.6240    4.1981    0.3126 F         1 <0>        -0.1648
     32 H2          0.9737   -1.3566   -1.3524 H         1 <0>         0.1504
     33 H3          3.0879   -0.0973   -1.3729 H         1 <0>         0.1456
     34 H4          1.4078    2.7709    1.3125 H         1 <0>         0.1394
     35 H5         -0.7053    1.5100    1.3391 H         1 <0>         0.1392
     36 H6         -2.0455   -0.2515    0.0982 H         1 <0>         0.4175
     37 H7         -3.0852   -2.6418    0.6850 H         1 <0>         0.1367
     38 H8         -3.0270   -2.4971   -1.0881 H         1 <0>         0.1375
     39 H9         -7.1718   -6.8817   -0.6880 H         1 <0>         0.1574
     40 H10        -6.9929   -3.2639   -0.9939 H         1 <0>         0.1205
     41 H11        -8.0597   -4.6888   -0.9855 H         1 <0>         0.1206
     42 H12        -9.1772   -2.7316    0.4922 H         1 <0>         0.4036
     43 H13        -8.3105   -3.1642    3.3595 H         1 <0>         0.1381
     44 H14       -11.2155   -3.1346    2.1775 H         1 <0>         0.0984
     45 H15       -10.7727   -3.2568    3.9637 H         1 <0>         0.1038
     46 H16        -9.5845   -1.0202    3.8221 H         1 <0>         0.1048
     47 H17       -10.0273   -0.8980    2.0359 H         1 <0>         0.0985
@<TRIPOS>BOND
     1    1    6 ar
     2    1    2 ar
     3    1   32 1
     4    2    3 ar
     5    2   33 1
     6    3    4 ar
     7    3   27 1
     8    4    5 ar
     9    4   34 1
    10    5    6 ar
    11    5   35 1
    12    6    7 1
    13    7    8 am
    14    7   36 1
    15    8    9 2
    16    8   10 1
    17   10   11 1
    18   10   37 1
    19   10   38 1
    20   11   12 1
    21   12   19 2
    22   12   13 1
    23   13   14 1
    24   13   15 am
    25   15   16 2
    26   15   17 1
    27   17   18 2
    28   17   39 1
    29   18   19 1
    30   18   20 1
    31   20   21 1
    32   20   40 1
    33   20   41 1
    34   21   22 2
    35   21   23 am
    36   23   24 1
    37   23   42 1
    38   24   26 1
    39   24   25 1
    40   24   43 1
    41   25   26 1
    42   25   44 1
    43   25   45 1
    44   26   46 1
    45   26   47 1
    46   27   28 1
    47   28   29 1
    48   28   30 1
    49   28   31 1
@<TRIPOS>MOLECULE
ZINC04001717
   52    53     0     0     0
SMALL
USER_CHARGES

@<TRIPOS>ATOM
      1 C1          4.6953    1.5487   -3.0722 C.3       1 <0>        -0.1355
      2 C2          4.6819    0.0189   -3.0509 C.3       1 <0>        -0.1383
      3 C3          3.2680   -0.4685   -2.8658 C.2       1 <0>         0.4988
      4 O1          2.3603    0.3291   -2.7613 O.2       1 <0>        -0.4699
      5 N1          3.0120   -1.7909   -2.8165 N.am      1 <0>        -0.7339
      6 C4          1.6546   -2.2642   -2.5344 C.3       1 <0>         0.3925
      7 C5          0.7179   -1.7724   -3.6077 C.2       1 <0>         0.4372
      8 O2         -0.0908   -2.5259   -4.0954 O.2       1 <0>        -0.4590
      9 O3          0.7822   -0.4972   -4.0217 O.3       1 <0>        -0.3000
     10 C6         -0.1358   -0.0994   -5.0421 C.3       1 <0>         0.0517
     11 C7          0.0862    1.3760   -5.3808 C.3       1 <0>        -0.1436
     12 C8          1.1996   -1.7282   -1.1756 C.3       1 <0>         0.4489
     13 F1          1.0819   -0.3356   -1.2393 F         1 <0>        -0.1320
     14 F2         -0.0399   -2.2864   -0.8453 F         1 <0>        -0.1696
     15 F3          2.1410   -2.0724   -0.1995 F         1 <0>        -0.1638
     16 N2          1.6434   -3.7290   -2.5102 N.pl3     1 <0>        -0.7183
     17 C9          2.1342   -4.4493   -3.6016 C.ar      1 <0>         0.2353
     18 C10         2.6699   -3.7789   -4.6940 C.ar      1 <0>        -0.2196
     19 C11         3.1548   -4.4942   -5.7712 C.ar      1 <0>         0.0252
     20 C12         3.1071   -5.8762   -5.7635 C.ar      1 <0>        -0.6526
     21 C13         2.5744   -6.5467   -4.6776 C.ar      1 <0>         0.0236
     22 C14         2.0931   -5.8378   -3.5946 C.ar      1 <0>        -0.1912
     23 S1          3.7257   -6.7849   -7.1405 S.o2      1 <0>         2.6174
     24 O4          3.0688   -8.0448   -7.1240 O.2       1 <0>        -1.0224
     25 O5          3.6714   -5.9120   -8.2605 O.2       1 <0>        -1.0231
     26 N3          5.3286   -7.0830   -6.8502 N.2       1 <0>        -1.0509
     27 C15         6.0837   -7.7914   -7.7791 C.2       1 <0>         0.3857
     28 C16         7.4531   -8.1217   -7.6604 C.2       1 <0>        -0.2707
     29 C17         7.8138   -8.8069   -8.7594 C.2       1 <0>         0.0355
     30 O6          6.7384   -8.9192   -9.5550 O.3       1 <0>        -0.1194
     31 N4          5.6510   -8.2754   -8.9158 N.2       1 <0>        -0.4522
     32 C18         9.1879   -9.3538   -9.0485 C.3       1 <0>        -0.0757
     33 H1          4.0771    1.9060   -3.8957 H         1 <0>         0.0638
     34 H2          4.3004    1.9287   -2.1300 H         1 <0>         0.0620
     35 H3          5.7180    1.9013   -3.2060 H         1 <0>         0.0633
     36 H4          5.0768   -0.3611   -3.9931 H         1 <0>         0.0997
     37 H5          5.3001   -0.3384   -2.2273 H         1 <0>         0.0978
     38 H6          3.7266   -2.4291   -2.9678 H         1 <0>         0.4238
     39 H7          0.0269   -0.7053   -5.9335 H         1 <0>         0.0681
     40 H8         -1.1568   -0.2412   -4.6877 H         1 <0>         0.0664
     41 H9         -0.6140    1.6794   -6.1592 H         1 <0>         0.0767
     42 H10        -0.0765    1.9819   -4.4895 H         1 <0>         0.0683
     43 H11         1.1072    1.5178   -5.7352 H         1 <0>         0.0663
     44 H12         1.2951   -4.1986   -1.7362 H         1 <0>         0.4218
     45 H13         2.7069   -2.6996   -4.7010 H         1 <0>         0.1232
     46 H14         3.5714   -3.9737   -6.6209 H         1 <0>         0.1391
     47 H15         2.5387   -7.6261   -4.6748 H         1 <0>         0.1426
     48 H16         1.6813   -6.3621   -2.7450 H         1 <0>         0.1312
     49 H17         8.0973   -7.8676   -6.8316 H         1 <0>         0.1400
     50 H18         9.2669  -10.3661   -8.6521 H         1 <0>         0.0796
     51 H19         9.3527   -9.3716  -10.1258 H         1 <0>         0.0738
     52 H20         9.9382   -8.7193   -8.5766 H         1 <0>         0.0824
@<TRIPOS>BOND
     1    1    2 1
     2    1   33 1
     3    1   34 1
     4    1   35 1
     5    2    3 1
     6    2   36 1
     7    2   37 1
     8    3    4 2
     9    3    5 am
    10    5    6 1
    11    5   38 1
    12    6    7 1
    13    6   12 1
    14    6   16 1
    15    7    8 2
    16    7    9 1
    17    9   10 1
    18   10   11 1
    19   10   39 1
    20   10   40 1
    21   11   41 1
    22   11   42 1
    23   11   43 1
    24   12   13 1
    25   12   14 1
    26   12   15 1
    27   16   17 1
    28   16   44 1
    29   17   22 ar
    30   17   18 ar
    31   18   19 ar
    32   18   45 1
    33   19   20 ar
    34   19   46 1
    35   20   21 ar
    36   20   23 1
    37   21   22 ar
    38   21   47 1
    39   22   48 1
    40   23   24 2
    41   23   25 2
    42   23   26 1
    43   26   27 1
    44   27   31 2
    45   27   28 1
    46   28   29 2
    47   28   49 1
    48   29   30 1
    49   29   32 1
    50   30   31 1
    51   32   50 1
    52   32   51 1
    53   32   52 1
@<TRIPOS>MOLECULE
ZINC43746950
   79    83     0     0     0
SMALL
USER_CHARGES

@<TRIPOS>ATOM
      1 C1         -0.0189    1.5415    0.0105 C.3       1 <0>        -0.1486
      2 C2          0.0021   -0.0041    0.0020 C.3       1 <0>        -0.0413
      3 C3          0.6333   -0.4150   -1.3055 C.3       1 <0>        -0.0902
      4 C4          1.1581   -1.8484   -1.3015 C.3       1 <0>        -0.1149
      5 C5          2.1544   -1.9883   -0.1470 C.3       1 <0>        -0.0625
      6 H1          2.8943   -1.1846   -0.2170 H         1 <0>         0.0699
      7 C6          1.3813   -1.8351    1.1600 C.3       1 <0>        -0.0665
      8 H2          2.0871   -1.9362    1.9994 H         1 <0>         0.0644
      9 C7          0.7506   -0.4500    1.2577 C.3       1 <0>        -0.0691
     10 H3          1.5283    0.2964    1.5248 H         1 <0>         0.0749
     11 C8         -0.3482   -0.4912    2.3527 C.3       1 <0>        -0.1185
     12 C9         -1.6400   -0.8862    1.6115 C.3       1 <0>        -0.1616
     13 C10        -1.4506   -0.4649    0.1437 C.3       1 <0>         0.1139
     14 H4         -2.1219    0.3741   -0.0834 H         1 <0>         0.0500
     15 O1         -1.7420   -1.5476   -0.7370 O.3       1 <0>        -0.5535
     16 C11         0.3335   -2.9366    1.2898 C.3       1 <0>        -0.1222
     17 C12         1.0289   -4.3004    1.3379 C.3       1 <0>        -0.0935
     18 C13         1.9286   -4.4462    0.1259 C.2       1 <0>        -0.0445
     19 C14         1.8170   -5.5587   -0.5900 C.2       1 <0>        -0.1740
     20 C15         2.6848   -5.7913   -1.7551 C.2       1 <0>         0.1711
     21 N1          2.4091   -6.6941   -2.6428 N.2       1 <0>        -0.3423
     22 O2          1.2454   -7.4893   -2.5063 O.3       1 <0>        -0.2114
     23 C16         1.0665   -8.4426   -3.5556 C.3       1 <0>         0.0568
     24 C17        -0.1954   -9.2291   -3.3100 C.2       1 <0>         0.5161
     25 O3         -0.8745   -8.9961   -2.3326 O.2       1 <0>        -0.5294
     26 N2         -0.5691  -10.1913   -4.1765 N.am      1 <0>        -0.7185
     27 C18        -1.7958  -10.9558   -3.9377 C.3       1 <0>         0.1289
     28 C19        -1.9874  -11.9766   -5.0612 C.3       1 <0>        -0.0410
     29 H5         -1.9747  -11.4646   -6.0233 H         1 <0>         0.0857
     30 C20        -0.8547  -13.0041   -5.0153 C.3       1 <0>        -0.1780
     31 C21        -0.9739  -13.9361   -6.1935 C.2       1 <0>         0.4907
     32 O4         -1.8807  -13.7918   -6.9956 O.co2     1 <0>        -0.6861
     33 O5         -0.1635  -14.8343   -6.3447 O.co2     1 <0>        -0.7082
     34 C22        -3.3093  -12.6779   -4.8827 C.ar      1 <0>        -0.0351
     35 C23        -3.5612  -13.3943   -3.7276 C.ar      1 <0>        -0.1212
     36 C24        -4.7737  -14.0376   -3.5639 C.ar      1 <0>        -0.1282
     37 C25        -5.7346  -13.9640   -4.5550 C.ar      1 <0>        -0.1343
     38 C26        -5.4830  -13.2468   -5.7096 C.ar      1 <0>        -0.1272
     39 C27        -4.2721  -12.6000   -5.8715 C.ar      1 <0>        -0.0748
     40 C28         3.9383   -4.9435   -1.8511 C.3       1 <0>        -0.0610
     41 C29         3.5489   -3.4949   -1.5665 C.3       1 <0>        -0.1110
     42 C30         2.8741   -3.3350   -0.2143 C.3       1 <0>        -0.0158
     43 C31         3.9875   -3.3286    0.8410 C.3       1 <0>        -0.1447
     44 H6          1.0037    1.9188    0.0028 H         1 <0>         0.0582
     45 H7         -0.5461    1.9026   -0.8725 H         1 <0>         0.0546
     46 H8         -0.5291    1.8930    0.9073 H         1 <0>         0.0540
     47 H9         -0.1027   -0.3083   -2.1059 H         1 <0>         0.0631
     48 H10         1.4656    0.2622   -1.5205 H         1 <0>         0.0514
     49 H11         0.3407   -2.5545   -1.1846 H         1 <0>         0.0841
     50 H12         1.6579   -2.0355   -2.2545 H         1 <0>         0.0584
     51 H13        -0.1035   -1.2203    3.1258 H         1 <0>         0.0707
     52 H14        -0.4641    0.4957    2.8134 H         1 <0>         0.0600
     53 H15        -1.8114   -1.9590    1.6798 H         1 <0>         0.0809
     54 H16        -2.4931   -0.3555    2.0432 H         1 <0>         0.0606
     55 H17        -2.6523   -1.8686   -0.6778 H         1 <0>         0.3750
     56 H18        -0.2259   -2.8081    2.2209 H         1 <0>         0.0645
     57 H19        -0.3564   -2.9138    0.4510 H         1 <0>         0.0906
     58 H20         1.6201   -4.3761    2.2500 H         1 <0>         0.0727
     59 H21         0.2761   -5.0904    1.3308 H         1 <0>         0.0711
     60 H22         1.0786   -6.3002   -0.3147 H         1 <0>         0.1275
     61 H23         0.9902   -7.9222   -4.5103 H         1 <0>         0.0863
     62 H24         1.9189   -9.1215   -3.5790 H         1 <0>         0.0871
     63 H25        -0.0259  -10.3777   -4.9582 H         1 <0>         0.4047
     64 H26        -1.7195  -11.4763   -2.9830 H         1 <0>         0.0676
     65 H27        -2.6483  -10.2770   -3.9143 H         1 <0>         0.0667
     66 H28         0.1050  -12.4889   -5.0552 H         1 <0>         0.0580
     67 H29        -0.9213  -13.5772   -4.0905 H         1 <0>         0.0601
     68 H30        -2.8105  -13.4518   -2.9533 H         1 <0>         0.1137
     69 H31        -4.9703  -14.5980   -2.6618 H         1 <0>         0.1129
     70 H32        -6.6816  -14.4672   -4.4274 H         1 <0>         0.1116
     71 H33        -6.2336  -13.1896   -6.4841 H         1 <0>         0.1138
     72 H34        -4.0770  -12.0366   -6.7720 H         1 <0>         0.1189
     73 H35         4.6759   -5.2874   -1.1271 H         1 <0>         0.0920
     74 H36         4.3557   -5.0203   -2.8578 H         1 <0>         0.0874
     75 H37         4.4527   -2.8805   -1.5782 H         1 <0>         0.0779
     76 H38         2.8854   -3.1552   -2.3567 H         1 <0>         0.0758
     77 H39         3.5507   -3.1834    1.8290 H         1 <0>         0.0586
     78 H40         4.5185   -4.2801    0.8147 H         1 <0>         0.0571
     79 H41         4.6843   -2.5176    0.6290 H         1 <0>         0.0592
@<TRIPOS>BOND
     1    1    2 1
     2    1   44 1
     3    1   45 1
     4    1   46 1
     5    2    9 1
     6    2   13 1
     7    2    3 1
     8    3    4 1
     9    3   47 1
    10    3   48 1
    11    4    5 1
    12    4   49 1
    13    4   50 1
    14    5    6 1
    15    5   42 1
    16    5    7 1
    17    7    8 1
    18    7    9 1
    19    7   16 1
    20    9   10 1
    21    9   11 1
    22   11   12 1
    23   11   51 1
    24   11   52 1
    25   12   13 1
    26   12   53 1
    27   12   54 1
    28   13   14 1
    29   13   15 1
    30   15   55 1
    31   16   17 1
    32   16   56 1
    33   16   57 1
    34   17   18 1
    35   17   58 1
    36   17   59 1
    37   18   42 1
    38   18   19 2
    39   19   20 1
    40   19   60 1
    41   20   21 2
    42   20   40 1
    43   21   22 1
    44   22   23 1
    45   23   24 1
    46   23   61 1
    47   23   62 1
    48   24   25 2
    49   24   26 am
    50   26   27 1
    51   26   63 1
    52   27   28 1
    53   27   64 1
    54   27   65 1
    55   28   29 1
    56   28   30 1
    57   28   34 1
    58   30   31 1
    59   30   66 1
    60   30   67 1
    61   31   32 2
    62   31   33 1
    63   34   39 ar
    64   34   35 ar
    65   35   36 ar
    66   35   68 1
    67   36   37 ar
    68   36   69 1
    69   37   38 ar
    70   37   70 1
    71   38   39 ar
    72   38   71 1
    73   39   72 1
    74   40   41 1
    75   40   73 1
    76   40   74 1
    77   41   42 1
    78   41   75 1
    79   41   76 1
    80   42   43 1
    81   43   77 1
    82   43   78 1
    83   43   79 1
@<TRIPOS>MOLECULE
ZINC66200619
   56    58     0     0     0
SMALL
USER_CHARGES

@<TRIPOS>ATOM
      1 C1          0.0811    1.9211   -1.3887 C.3       1 <0>        -0.1516
      2 C2          0.0568    0.4032   -1.1982 C.3       1 <0>         0.0749
      3 C3          0.7672    0.0416    0.1078 C.3       1 <0>        -0.1801
      4 O1         -1.2979   -0.0485   -1.1444 O.3       1 <0>        -0.3052
      5 C4         -1.5438   -1.3145   -1.5733 C.ar      1 <0>         0.1311
      6 C5         -0.4874   -2.1502   -1.9108 C.ar      1 <0>        -0.1848
      7 C6         -0.7312   -3.4391   -2.3473 C.ar      1 <0>        -0.0819
      8 C7         -2.0264   -3.9040   -2.4505 C.ar      1 <0>        -0.1301
      9 C8         -3.0950   -3.0712   -2.1135 C.ar      1 <0>        -0.0922
     10 C9         -2.8469   -1.7721   -1.6680 C.ar      1 <0>        -0.0883
     11 C10        -4.4835   -3.5654   -2.2227 C.2       1 <0>         0.5339
     12 O2         -5.4120   -2.8386   -1.9287 O.2       1 <0>        -0.3946
     13 N1         -4.7200   -4.8221   -2.6484 N.am      1 <0>        -0.6388
     14 C11        -5.9862   -5.2728   -2.7480 C.2       1 <0>         0.5056
     15 S1         -7.2943   -4.2489   -2.3339 S.2       1 <0>        -0.4721
     16 N2         -6.2227   -6.5295   -3.1737 N.pl3     1 <0>        -0.6182
     17 C12        -7.5361   -6.9587   -3.3913 C.ar      1 <0>         0.1510
     18 C13        -8.4552   -6.1090   -3.9931 C.ar      1 <0>        -0.0983
     19 C14        -9.7511   -6.5360   -4.2070 C.ar      1 <0>        -0.0124
     20 C15       -10.1339   -7.8080   -3.8226 C.ar      1 <0>        -0.6121
     21 C16        -9.2212   -8.6564   -3.2231 C.ar      1 <0>        -0.0163
     22 C17        -7.9224   -8.2375   -3.0112 C.ar      1 <0>        -0.1446
     23 S2        -11.7884   -8.3486   -4.0967 S.o2      1 <0>         2.6260
     24 O3        -12.0395   -9.3818   -3.1540 O.2       1 <0>        -1.0169
     25 O4        -12.5902   -7.1782   -4.1759 O.2       1 <0>        -1.0139
     26 N3        -11.8312   -9.0539   -5.5944 N.2       1 <0>        -1.0460
     27 C18       -13.0242   -9.5785   -6.0827 C.ar      1 <0>         0.4110
     28 C19       -13.0622  -10.1805   -7.3462 C.ar      1 <0>         0.2340
     29 N4        -14.1997  -10.6765   -7.8030 N.ar      1 <0>        -0.4824
     30 C20       -15.2979  -10.6031   -7.0662 C.ar      1 <0>        -0.0516
     31 C21       -15.2616  -10.0099   -5.8218 C.ar      1 <0>         0.0687
     32 N5        -14.1267   -9.5151   -5.3517 N.ar      1 <0>        -0.5455
     33 O5        -11.9355  -10.2543   -8.0998 O.3       1 <0>        -0.2823
     34 C22       -12.0501  -10.8823   -9.3782 C.3       1 <0>         0.0398
     35 H1          1.1144    2.2656   -1.4297 H         1 <0>         0.0777
     36 H2         -0.4250    2.1787   -2.3191 H         1 <0>         0.0664
     37 H3         -0.4288    2.4004   -0.5530 H         1 <0>         0.0690
     38 H4          0.5666   -0.0761   -2.0339 H         1 <0>         0.0755
     39 H5          0.2573    0.5209    0.9435 H         1 <0>         0.0698
     40 H6          0.7498   -1.0398    0.2435 H         1 <0>         0.0621
     41 H7          1.8005    0.3861    0.0667 H         1 <0>         0.0735
     42 H8          0.5284   -1.7918   -1.8324 H         1 <0>         0.1361
     43 H9          0.0946   -4.0842   -2.6087 H         1 <0>         0.1341
     44 H10        -2.2134   -4.9113   -2.7922 H         1 <0>         0.1249
     45 H11        -3.6692   -1.1244   -1.4018 H         1 <0>         0.1493
     46 H12        -3.9788   -5.4022   -2.8831 H         1 <0>         0.4083
     47 H13        -5.4821   -7.1363   -3.3292 H         1 <0>         0.4070
     48 H14        -8.1570   -5.1153   -4.2932 H         1 <0>         0.1444
     49 H15       -10.4664   -5.8756   -4.6746 H         1 <0>         0.1435
     50 H16        -9.5234   -9.6491   -2.9237 H         1 <0>         0.1429
     51 H17        -7.2089   -8.9020   -2.5467 H         1 <0>         0.1287
     52 H18       -16.2256  -11.0090   -7.4417 H         1 <0>         0.1472
     53 H19       -16.1608   -9.9531   -5.2264 H         1 <0>         0.1476
     54 H20       -12.7740  -10.3395   -9.9861 H         1 <0>         0.0464
     55 H21       -11.0799  -10.8745   -9.8751 H         1 <0>         0.0833
     56 H22       -12.3837  -11.9119   -9.2487 H         1 <0>         0.0462
@<TRIPOS>BOND
     1    1    2 1
     2    1   35 1
     3    1   36 1
     4    1   37 1
     5    2    3 1
     6    2    4 1
     7    2   38 1
     8    3   39 1
     9    3   40 1
    10    3   41 1
    11    4    5 1
    12    5   10 ar
    13    5    6 ar
    14    6    7 ar
    15    6   42 1
    16    7    8 ar
    17    7   43 1
    18    8    9 ar
    19    8   44 1
    20    9   10 ar
    21    9   11 1
    22   10   45 1
    23   11   12 2
    24   11   13 am
    25   13   14 1
    26   13   46 1
    27   14   15 2
    28   14   16 1
    29   16   17 1
    30   16   47 1
    31   17   22 ar
    32   17   18 ar
    33   18   19 ar
    34   18   48 1
    35   19   20 ar
    36   19   49 1
    37   20   21 ar
    38   20   23 1
    39   21   22 ar
    40   21   50 1
    41   22   51 1
    42   23   24 2
    43   23   25 2
    44   23   26 1
    45   26   27 1
    46   27   32 ar
    47   27   28 ar
    48   28   29 ar
    49   28   33 1
    50   29   30 ar
    51   30   31 ar
    52   30   52 1
    53   31   32 ar
    54   31   53 1
    55   33   34 1
    56   34   54 1
    57   34   55 1
    58   34   56 1
@<TRIPOS>MOLECULE
ZINC20761909
   46    49     0     0     0
SMALL
USER_CHARGES
(2S)-3-(1H-indol-3-yl)-2-[[2-(1-oxoisoindolin-2-yl)acetyl]amino]propanoic acid
@<TRIPOS>ATOM
      1 C1          1.1783    1.7806    0.0004 C.ar      1 <0>        -0.0930
      2 C2         -0.0126    1.0758    0.0080 C.ar      1 <0>        -0.1298
      3 C3         -1.2183    1.7458    0.0173 C.ar      1 <0>        -0.0474
      4 C4         -1.2369    3.1419    0.0307 C.ar      1 <0>        -0.1467
      5 C5         -0.0291    3.8433    0.0230 C.ar      1 <0>        -0.0793
      6 C6          1.1680    3.1653    0.0079 C.ar      1 <0>        -0.1053
      7 C7         -0.3865    5.3085    0.0347 C.3       1 <0>         0.1420
      8 N1         -1.8524    5.3735    0.0494 N.am      1 <0>        -0.5928
      9 C8         -2.3405    4.1210    0.0470 C.2       1 <0>         0.5606
     10 O1         -3.5220    3.8359    0.0572 O.2       1 <0>        -0.5129
     11 C9         -2.6520    6.6009    0.0641 C.3       1 <0>         0.1180
     12 C10        -2.9119    7.0141    1.4898 C.2       1 <0>         0.4989
     13 O2         -2.4724    6.3488    2.4037 O.2       1 <0>        -0.5422
     14 N2         -3.6327    8.1229    1.7494 N.am      1 <0>        -0.7006
     15 C11        -3.8853    8.5246    3.1354 C.3       1 <0>         0.1167
     16 H1         -2.9988    8.2514    3.7265 H         1 <0>         0.0844
     17 C12        -4.1397   10.0323    3.1912 C.3       1 <0>        -0.0385
     18 C13        -2.8889   10.7681    2.7846 C.2       1 <0>        -0.1531
     19 C14        -1.9499   11.2618    3.6070 C.2       1 <0>         0.0392
     20 N3         -0.9601   11.8625    2.8778 N.pl3     1 <0>        -0.6096
     21 H2         -0.1001   12.3194    3.3894 H         1 <0>         0.4369
     22 C15        -1.2496   11.7752    1.5345 C.ar      1 <0>         0.1062
     23 C16        -2.4706   11.0858    1.4171 C.ar      1 <0>        -0.0956
     24 C17        -3.0169   10.8466    0.1550 C.ar      1 <0>        -0.0701
     25 C18        -2.3619   11.2841   -0.9618 C.ar      1 <0>        -0.1525
     26 C19        -1.1576   11.9650   -0.8513 C.ar      1 <0>        -0.1055
     27 C20        -0.6004   12.2116    0.3845 C.ar      1 <0>        -0.1338
     28 C21        -5.0937    7.7916    3.6586 C.2       1 <0>         0.4561
     29 O3         -5.6833    7.0135    2.9466 O.co2     1 <0>        -0.6243
     30 O4         -5.5149    8.0031    4.9154 O.co2     1 <0>        -0.7701
     31 H3          2.1185    1.2492   -0.0111 H         1 <0>         0.1305
     32 H4          0.0021   -0.0041    0.0020 H         1 <0>         0.1309
     33 H5         -2.1455    1.1920    0.0184 H         1 <0>         0.1320
     34 H6          2.0989    3.7127    0.0016 H         1 <0>         0.1296
     35 H7          0.0392    5.7826    0.9314 H         1 <0>         0.0977
     36 H8          0.0216    5.7927   -0.8648 H         1 <0>         0.0956
     37 H9         -2.1048    7.4012   -0.4557 H         1 <0>         0.1082
     38 H10        -3.6099    6.4207   -0.4458 H         1 <0>         0.1152
     39 H11        -4.0313    8.7263    0.9205 H         1 <0>         0.4015
     40 H12        -4.9578   10.2918    2.5032 H         1 <0>         0.0691
     41 H13        -4.4174   10.3196    4.2160 H         1 <0>         0.0942
     42 H14        -1.9714   11.1932    4.6846 H         1 <0>         0.1687
     43 H15        -3.9538   10.3177    0.0615 H         1 <0>         0.1187
     44 H16        -2.7847   11.0984   -1.9380 H         1 <0>         0.1195
     45 H17        -0.6518   12.3046   -1.7431 H         1 <0>         0.1192
     46 H18         0.3376   12.7416    0.4599 H         1 <0>         0.1135
@<TRIPOS>BOND
     1    1    6 ar
     2    1    2 ar
     3    1   31 1
     4    2    3 ar
     5    2   32 1
     6    3    4 ar
     7    3   33 1
     8    4    9 1
     9    4    5 ar
    10    5    6 ar
    11    5    7 1
    12    6   34 1
    13    7    8 1
    14    7   35 1
    15    7   36 1
    16    8    9 am
    17    8   11 1
    18    9   10 2
    19   11   12 1
    20   11   37 1
    21   11   38 1
    22   12   13 2
    23   12   14 am
    24   14   15 1
    25   14   39 1
    26   15   16 1
    27   15   17 1
    28   15   28 1
    29   17   18 1
    30   17   40 1
    31   17   41 1
    32   18   23 1
    33   18   19 2
    34   19   20 1
    35   19   42 1
    36   20   21 1
    37   20   22 1
    38   22   27 ar
    39   22   23 ar
    40   23   24 ar
    41   24   25 ar
    42   24   43 1
    43   25   26 ar
    44   25   44 1
    45   26   27 ar
    46   26   45 1
    47   27   46 1
    48   28   29 2
    49   28   30 1
@<TRIPOS>MOLECULE
ZINC39862087
   39    40     0     0     0
SMALL
USER_CHARGES

@<TRIPOS>ATOM
      1 C1          0.4154    1.4594   -0.0400 C.3       1 <0>        -0.1144
      2 C2          0.5127   -0.0440   -0.0010 C.ar      1 <0>        -0.0923
      3 C3          0.8709   -0.7423   -1.1415 C.ar      1 <0>        -0.1023
      4 C4          0.9632   -2.1230   -1.1163 C.ar      1 <0>        -0.1106
      5 C5          0.6986   -2.8143    0.0471 C.ar      1 <0>        -0.0978
      6 C6          0.3360   -2.1161    1.2041 C.ar      1 <0>        -0.0782
      7 C7          0.2505   -0.7195    1.1715 C.ar      1 <0>        -0.0865
      8 C8          0.0517   -2.8450    2.4485 C.2       1 <0>         0.0479
      9 C9         -0.0327   -4.1985    2.4374 C.2       1 <0>        -0.2084
     10 C10        -0.1417   -5.1455    3.5676 C.2       1 <0>         0.5423
     11 O1         -0.1687   -4.7629    4.7224 O.2       1 <0>        -0.4753
     12 N1         -0.2088   -6.4296    3.2590 N.am      1 <0>        -0.4866
     13 C11        -0.1790   -6.8492    1.9778 C.2       1 <0>         0.2735
     14 S1         -0.2536   -8.4526    1.3825 S.2       1 <0>        -0.2741
     15 S2         -0.0509   -5.3279    1.0518 S.3       1 <0>         0.0210
     16 C12        -0.3175   -7.4193    4.3337 C.3       1 <0>         0.0412
     17 H1         -0.3274   -6.9097    5.2972 H         1 <0>         0.1088
     18 C13        -1.6129   -8.2156    4.1646 C.3       1 <0>        -0.1148
     19 C14        -2.8122   -7.2838    4.3496 C.3       1 <0>        -0.1419
     20 C15        -4.0882   -8.0682    4.1830 C.2       1 <0>         0.5179
     21 O2         -4.0428   -9.2555    3.9402 O.2       1 <0>        -0.5300
     22 N2         -5.2798   -7.4501    4.3038 N.am      1 <0>        -0.8624
     23 C16         0.8604   -8.3574    4.2737 C.2       1 <0>         0.5065
     24 O3          1.7117   -8.2128    3.4130 O.co2     1 <0>        -0.6674
     25 O4          0.9619   -9.2611    5.0859 O.co2     1 <0>        -0.6741
     26 H2          1.3829    1.8929    0.2131 H         1 <0>         0.0715
     27 H3          0.1248    1.7788   -1.0409 H         1 <0>         0.0672
     28 H4         -0.3321    1.7938    0.6794 H         1 <0>         0.0675
     29 H5          1.0791   -0.2068   -2.0560 H         1 <0>         0.1259
     30 H6          1.2429   -2.6604   -2.0103 H         1 <0>         0.1309
     31 H7          0.7708   -3.8917    0.0651 H         1 <0>         0.1365
     32 H8         -0.0242   -0.1730    2.0616 H         1 <0>         0.1309
     33 H9         -0.0898   -2.3027    3.3717 H         1 <0>         0.1583
     34 H10        -1.6430   -8.6528    3.1665 H         1 <0>         0.1045
     35 H11        -1.6513   -9.0096    4.9103 H         1 <0>         0.0989
     36 H12        -2.7821   -6.8466    5.3476 H         1 <0>         0.0929
     37 H13        -2.7739   -6.4898    3.6038 H         1 <0>         0.0769
     38 H14        -5.3161   -6.5004    4.4980 H         1 <0>         0.3985
     39 H15        -6.1011   -7.9550    4.1966 H         1 <0>         0.3976
@<TRIPOS>BOND
     1    1    2 1
     2    1   26 1
     3    1   27 1
     4    1   28 1
     5    2    7 ar
     6    2    3 ar
     7    3    4 ar
     8    3   29 1
     9    4    5 ar
    10    4   30 1
    11    5    6 ar
    12    5   31 1
    13    6    7 ar
    14    6    8 1
    15    7   32 1
    16    8    9 2
    17    8   33 1
    18    9   15 1
    19    9   10 1
    20   10   11 2
    21   10   12 am
    22   12   13 1
    23   12   16 1
    24   13   14 2
    25   13   15 1
    26   16   17 1
    27   16   18 1
    28   16   23 1
    29   18   19 1
    30   18   34 1
    31   18   35 1
    32   19   20 1
    33   19   36 1
    34   19   37 1
    35   20   21 2
    36   20   22 am
    37   22   38 1
    38   22   39 1
    39   23   24 2
    40   23   25 1
@<TRIPOS>MOLECULE
ZINC50983716
   43    43     0     0     0
SMALL
USER_CHARGES

@<TRIPOS>ATOM
      1 C1         -0.0187    1.5258    0.0104 C.3       1 <0>        -0.1584
      2 C2          0.0021   -0.0041    0.0020 C.3       1 <0>         0.1428
      3 C3          0.7421   -0.5109    1.2415 C.3       1 <0>        -0.1593
      4 N1         -1.3723   -0.5112    0.0124 N.pl3     1 <0>        -0.7324
      5 C4         -1.6455   -1.7447   -0.4891 C.2       1 <0>         0.5538
      6 O1         -0.6535   -2.5000   -0.9952 O.3       1 <0>        -0.6414
      7 C5         -2.9572   -2.2286   -0.4792 C.2       1 <0>        -0.4607
      8 C6         -4.0129   -1.4248    0.0593 C.1       1 <0>         0.3023
      9 N2         -4.8504   -0.7872    0.4865 N.1       1 <0>        -0.5514
     10 C7         -3.2403   -3.5071   -0.9991 C.2       1 <0>         0.4179
     11 O2         -2.3446   -4.1892   -1.4560 O.2       1 <0>        -0.5074
     12 C8         -4.6542   -4.0288   -0.9884 C.3       1 <0>        -0.1573
     13 C9         -4.6860   -5.4285   -1.6052 C.3       1 <0>        -0.1146
     14 C10        -6.1214   -5.9581   -1.5944 C.3       1 <0>         0.1171
     15 N3         -6.1519   -7.2984   -2.1850 N.am      1 <0>        -0.7184
     16 C11        -7.3187   -7.9659   -2.2816 C.2       1 <0>         0.5545
     17 O3         -8.3461   -7.4557   -1.8784 O.2       1 <0>        -0.5249
     18 C12        -7.3495   -9.3160   -2.8765 C.ar      1 <0>        -0.1815
     19 C13        -6.1696   -9.9075   -3.3356 C.ar      1 <0>        -0.0270
     20 C14        -6.2039  -11.1678   -3.8901 C.ar      1 <0>        -0.1709
     21 C15        -7.4067  -11.8518   -3.9943 C.ar      1 <0>         0.1550
     22 C16        -8.5808  -11.2731   -3.5419 C.ar      1 <0>        -0.2045
     23 C17        -8.5591  -10.0115   -2.9782 C.ar      1 <0>         0.1910
     24 F1         -9.7035   -9.4492   -2.5317 F         1 <0>        -0.1047
     25 F2         -7.4326  -13.0875   -4.5398 F         1 <0>        -0.1262
     26 H1          1.0039    1.9031    0.0027 H         1 <0>         0.0637
     27 H2         -0.5459    1.8868   -0.8726 H         1 <0>         0.0570
     28 H3         -0.5289    1.8773    0.9072 H         1 <0>         0.0536
     29 H4          0.5123   -0.3556   -0.8948 H         1 <0>         0.0841
     30 H5          0.2319   -0.1594    2.1383 H         1 <0>         0.0471
     31 H6          0.7568   -1.6008    1.2356 H         1 <0>         0.0638
     32 H7          1.7647   -0.1336    1.2338 H         1 <0>         0.0529
     33 H8         -2.0874    0.0333    0.3772 H         1 <0>         0.3874
     34 H9         -5.0162   -4.0760    0.0387 H         1 <0>         0.0770
     35 H10        -5.2920   -3.3616   -1.5682 H         1 <0>         0.0770
     36 H11        -4.3239   -5.3813   -2.6322 H         1 <0>         0.0730
     37 H12        -4.0482   -6.0957   -1.0254 H         1 <0>         0.0729
     38 H13        -6.4835   -6.0053   -0.5674 H         1 <0>         0.0696
     39 H14        -6.7592   -5.2909   -2.1742 H         1 <0>         0.0696
     40 H15        -5.3322   -7.7054   -2.5067 H         1 <0>         0.4006
     41 H16        -5.2323   -9.3770   -3.2560 H         1 <0>         0.1505
     42 H17        -5.2921  -11.6248   -4.2452 H         1 <0>         0.1512
     43 H18        -9.5140  -11.8102   -3.6259 H         1 <0>         0.1554
@<TRIPOS>BOND
     1    1    2 1
     2    1   26 1
     3    1   27 1
     4    1   28 1
     5    2    3 1
     6    2    4 1
     7    2   29 1
     8    3   30 1
     9    3   31 1
    10    3   32 1
    11    4    5 1
    12    4   33 1
    13    5    6 1
    14    5    7 2
    15    7    8 1
    16    7   10 1
    17    8    9 3
    18   10   11 2
    19   10   12 1
    20   12   13 1
    21   12   34 1
    22   12   35 1
    23   13   14 1
    24   13   36 1
    25   13   37 1
    26   14   15 1
    27   14   38 1
    28   14   39 1
    29   15   16 am
    30   15   40 1
    31   16   17 2
    32   16   18 1
    33   18   23 ar
    34   18   19 ar
    35   19   20 ar
    36   19   41 1
    37   20   21 ar
    38   20   42 1
    39   21   22 ar
    40   21   25 1
    41   22   23 ar
    42   22   43 1
    43   23   24 1
@<TRIPOS>MOLECULE
ZINC63143333
   33    33     0     0     0
SMALL
USER_CHARGES

@<TRIPOS>ATOM
      1 C1         -0.0225    1.8097    0.0120 C.3       1 <0>        -0.6586
      2 S1          0.0021   -0.0041    0.0020 S.o2      1 <0>         2.4309
      3 O1          0.7981   -0.4488    1.0919 O.2       1 <0>        -0.9355
      4 O2         -1.3351   -0.4711   -0.1129 O.2       1 <0>        -0.9352
      5 C2          0.8773   -0.3845   -1.5406 C.3       1 <0>        -0.6045
      6 C3          0.9858   -1.9018   -1.7046 C.3       1 <0>        -0.5953
      7 S2          1.8611   -2.2822   -3.2473 S.o2      1 <0>         2.5419
      8 O3          1.0705   -1.9020   -4.3651 O.2       1 <0>        -1.0102
      9 O4          3.2204   -1.8795   -3.1508 O.2       1 <0>        -1.0110
     10 N1          1.9138   -3.9362   -3.3099 N.2       1 <0>        -1.0799
     11 C4          2.5297   -4.5749   -4.3886 C.ar      1 <0>         0.3398
     12 C5          3.1037   -3.8239   -5.4069 C.ar      1 <0>        -0.2705
     13 C6          3.7124   -4.4579   -6.4720 C.ar      1 <0>         0.0410
     14 C7          3.7511   -5.8392   -6.5266 C.ar      1 <0>        -0.7683
     15 C8          3.1805   -6.5907   -5.5143 C.ar      1 <0>         0.0895
     16 C9          2.5747   -5.9618   -4.4426 C.ar      1 <0>        -0.1806
     17 Cl1         3.2309   -8.3244   -5.5873 Cl        1 <0>        -0.0725
     18 S3          4.5278   -6.6439   -7.8881 S.o2      1 <0>         2.7056
     19 O5          3.6163   -7.6313   -8.3501 O.2       1 <0>        -0.9672
     20 O6          5.0321   -5.6181   -8.7323 O.2       1 <0>        -0.9838
     21 N2          5.8426   -7.4553   -7.2920 N.pl3     1 <0>        -1.2518
     22 H1          1.0001    2.1870    0.0043 H         1 <0>         0.1301
     23 H2         -0.5497    2.1708   -0.8711 H         1 <0>         0.1302
     24 H3         -0.5327    2.1613    0.9088 H         1 <0>         0.1310
     25 H4          0.3268    0.0336   -2.3834 H         1 <0>         0.1433
     26 H5          1.8766    0.0498   -1.5080 H         1 <0>         0.1432
     27 H6          1.5364   -2.3199   -0.8619 H         1 <0>         0.1415
     28 H7         -0.0134   -2.3361   -1.7372 H         1 <0>         0.1417
     29 H8          3.0735   -2.7451   -5.3657 H         1 <0>         0.1163
     30 H9          4.1586   -3.8742   -7.2636 H         1 <0>         0.1356
     31 H10         2.1334   -6.5484   -3.6504 H         1 <0>         0.1348
     32 H11         6.0464   -7.4187   -6.3444 H         1 <0>         0.4153
     33 H12         6.4089   -7.9672   -7.8906 H         1 <0>         0.4132
@<TRIPOS>BOND
     1    1    2 1
     2    1   22 1
     3    1   23 1
     4    1   24 1
     5    2    3 2
     6    2    4 2
     7    2    5 1
     8    5    6 1
     9    5   25 1
    10    5   26 1
    11    6    7 1
    12    6   27 1
    13    6   28 1
    14    7    8 2
    15    7    9 2
    16    7   10 1
    17   10   11 1
    18   11   16 ar
    19   11   12 ar
    20   12   13 ar
    21   12   29 1
    22   13   14 ar
    23   13   30 1
    24   14   15 ar
    25   14   18 1
    26   15   16 ar
    27   15   17 1
    28   16   31 1
    29   18   19 2
    30   18   20 2
    31   18   21 1
    32   21   32 1
    33   21   33 1
@<TRIPOS>MOLECULE
ZINC09341978
   48    50     0     0     0
SMALL
USER_CHARGES

@<TRIPOS>ATOM
      1 C1         -0.0187    1.5258    0.0104 C.3       1 <0>        -0.1486
      2 C2          0.0021   -0.0041    0.0020 C.3       1 <0>         0.0659
      3 O1         -1.3386   -0.4987    0.0122 O.3       1 <0>        -0.3430
      4 C3         -1.4971   -1.8377    0.0065 C.2       1 <0>         0.5530
      5 O2         -0.5229   -2.5652   -0.0067 O.2       1 <0>        -0.4916
      6 C4         -2.8456   -2.4171    0.0162 C.2       1 <0>        -0.1842
      7 C5         -3.6047   -2.7394   -1.0722 C.2       1 <0>         0.1214
      8 N1         -4.7910   -3.2505   -0.6664 N.pl3     1 <0>        -0.4742
      9 C6         -4.8548   -3.2828    0.7133 C.ar      1 <0>         0.0913
     10 C7         -3.6443   -2.7715    1.2019 C.ar      1 <0>        -0.0748
     11 C8         -3.4230   -2.6895    2.5868 C.ar      1 <0>         0.1679
     12 C9         -4.4182   -3.1253    3.4662 C.ar      1 <0>         0.0515
     13 C10        -5.6099   -3.6330    2.9687 C.ar      1 <0>        -0.1493
     14 C11        -5.8325   -3.7060    1.6091 C.ar      1 <0>        -0.1390
     15 O3         -4.2183   -3.0521    4.8092 O.3       1 <0>        -0.3017
     16 C12        -5.2778   -3.5152    5.6489 C.3       1 <0>         0.0321
     17 N2         -2.2463   -2.1891    3.0693 N.2       1 <0>        -0.5237
     18 C13        -2.1300   -0.9094    3.3098 C.2       1 <0>         0.3206
     19 C14        -0.8692   -0.3733    3.8269 C.2       1 <0>        -0.4851
     20 C15         0.2302   -1.2212    4.0652 C.2       1 <0>         0.5554
     21 N3          1.3843   -0.6900    4.5445 N.am      1 <0>        -0.6771
     22 C16         1.4840    0.6275    4.7914 C.2       1 <0>         0.7130
     23 N4          0.4551    1.4650    4.5754 N.am      1 <0>        -0.6744
     24 C17        -0.7266    1.0030    4.0916 C.2       1 <0>         0.5659
     25 O4         -1.6588    1.7729    3.8921 O.2       1 <0>        -0.5828
     26 O5          2.5306    1.0726    5.2209 O.2       1 <0>        -0.5906
     27 O6          0.1459   -2.4234    3.8431 O.3       1 <0>        -0.5276
     28 C18        -5.8565   -3.7046   -1.5635 C.3       1 <0>         0.0794
     29 C19        -3.1857   -2.5535   -2.5078 C.3       1 <0>        -0.0953
     30 H1          1.0039    1.9031    0.0027 H         1 <0>         0.0728
     31 H2         -0.5459    1.8868   -0.8726 H         1 <0>         0.0603
     32 H3         -0.5289    1.8773    0.9072 H         1 <0>         0.0727
     33 H4          0.5123   -0.3556   -0.8948 H         1 <0>         0.0575
     34 H5          0.5293   -0.3651    0.8851 H         1 <0>         0.0680
     35 H6         -6.3745   -3.9687    3.6537 H         1 <0>         0.1272
     36 H7         -6.7650   -4.1049    1.2380 H         1 <0>         0.1168
     37 H8         -6.1773   -2.9311    5.4544 H         1 <0>         0.0471
     38 H9         -5.4748   -4.5665    5.4390 H         1 <0>         0.0469
     39 H10        -4.9895   -3.4012    6.6939 H         1 <0>         0.0923
     40 H11        -2.9637   -0.2477    3.1272 H         1 <0>         0.0856
     41 H12        -5.7154   -4.7616   -1.7893 H         1 <0>         0.0685
     42 H13        -6.8233   -3.5621   -1.0807 H         1 <0>         0.0824
     43 H14        -5.8234   -3.1280   -2.4879 H         1 <0>         0.0817
     44 H15        -2.6790   -3.4529   -2.8577 H         1 <0>         0.0821
     45 H16        -4.0669   -2.3704   -3.1226 H         1 <0>         0.0743
     46 H17        -2.5082   -1.7028   -2.5813 H         1 <0>         0.0832
     47 H18         2.1453   -1.2680    4.7109 H         1 <0>         0.4124
     48 H19         0.5591    2.4109    4.7637 H         1 <0>         0.4140
@<TRIPOS>BOND
     1    1    2 1
     2    1   30 1
     3    1   31 1
     4    1   32 1
     5    2    3 1
     6    2   33 1
     7    2   34 1
     8    3    4 1
     9    4    5 2
    10    4    6 1
    11    6   10 1
    12    6    7 2
    13    7    8 1
    14    7   29 1
    15    8    9 1
    16    8   28 1
    17    9   14 ar
    18    9   10 ar
    19   10   11 ar
    20   11   12 ar
    21   11   17 1
    22   12   13 ar
    23   12   15 1
    24   13   14 ar
    25   13   35 1
    26   14   36 1
    27   15   16 1
    28   16   37 1
    29   16   38 1
    30   16   39 1
    31   17   18 2
    32   18   19 1
    33   18   40 1
    34   19   24 1
    35   19   20 2
    36   20   21 1
    37   20   27 1
    38   21   22 am
    39   21   47 1
    40   22   23 am
    41   22   26 2
    42   23   24 am
    43   23   48 1
    44   24   25 2
    45   28   41 1
    46   28   42 1
    47   28   43 1
    48   29   44 1
    49   29   45 1
    50   29   46 1
@<TRIPOS>MOLECULE
ZINC15708461
   54    55     0     0     0
SMALL
USER_CHARGES
3-[(4R,7S,8aS)-7-(2-methoxyethylcarbamothioylamino)-1-oxo-3,4,6,7,8,8a-hexahydro-2H-pyrrolo[2,1-f]pyrazin-4-yl]-N-prop-2-ynyl-propanamide
@<TRIPOS>ATOM
      1 C1         -2.1145   -2.6569    9.0255 C.3       1 <0>         0.0293
      2 O1         -1.9338   -3.0302    7.6580 O.3       1 <0>        -0.3943
      3 C2         -0.6724   -3.6437    7.3847 C.3       1 <0>         0.0409
      4 C3         -0.5895   -3.9994    5.8990 C.3       1 <0>         0.1223
      5 N1         -0.6038   -2.7708    5.1012 N.pl3     1 <0>        -0.6612
      6 C4         -0.5393   -2.8395    3.7567 C.2       1 <0>         0.5506
      7 S1         -0.4405   -4.3626    2.9812 S.2       1 <0>        -0.6024
      8 N2         -0.5524   -1.7092    3.0227 N.pl3     1 <0>        -0.7027
      9 C5         -0.4823   -1.7840    1.5613 C.3       1 <0>         0.1287
     10 H1         -0.9831   -2.6837    1.2039 H         1 <0>         0.1680
     11 C6         -1.1216   -0.5211    0.9248 C.3       1 <0>        -0.1353
     12 C7          0.0049    0.0755    0.0803 C.3       1 <0>         0.0129
     13 H2         -0.0142   -0.3553   -0.9208 H         1 <0>         0.1795
     14 C8          0.0301    1.5657   -0.0088 C.2       1 <0>         0.5105
     15 O2         -1.0042    2.1991   -0.0061 O.2       1 <0>        -0.4697
     16 N3          1.2170    2.1971   -0.0979 N.am      1 <0>        -0.7280
     17 C9          2.5134    1.5408    0.0100 C.3       1 <0>         0.0813
     18 C10         2.3910    0.0102   -0.0107 C.3       1 <0>         0.0285
     19 H3          2.2450   -0.3359   -1.0340 H         1 <0>         0.1528
     20 C11         0.9984   -1.7629    1.0893 C.3       1 <0>        -0.0115
     21 C12         3.6545   -0.6220    0.5766 C.3       1 <0>        -0.1215
     22 C13         4.8383   -0.3562   -0.3555 C.3       1 <0>        -0.1411
     23 C14         6.0556   -1.0800    0.1596 C.2       1 <0>         0.5145
     24 O3          5.9834   -1.7432    1.1725 O.2       1 <0>        -0.5339
     25 N4          7.2245   -0.9904   -0.5052 N.am      1 <0>        -0.7232
     26 C15         8.4079   -1.6941   -0.0045 C.3       1 <0>         0.2333
     27 C16         9.5469   -1.4384   -0.9012 C.1       1 <0>        -0.2326
     28 C17        10.4553   -1.2344   -1.6164 C.1       1 <0>        -0.1437
     29 H4         -3.0955   -2.1986    9.1504 H         1 <0>         0.0917
     30 H5         -2.0444   -3.5431    9.6563 H         1 <0>         0.0493
     31 H6         -1.3413   -1.9444    9.3128 H         1 <0>         0.0439
     32 H7         -0.5725   -4.5503    7.9815 H         1 <0>         0.0821
     33 H8          0.1307   -2.9516    7.6380 H         1 <0>         0.0584
     34 H9         -1.4429   -4.6200    5.6258 H         1 <0>         0.1045
     35 H10         0.3337   -4.5463    5.7073 H         1 <0>         0.1100
     36 H11        -0.6598   -1.9078    5.5405 H         1 <0>         0.4034
     37 H12        -0.6084   -0.8463    3.4621 H         1 <0>         0.4005
     38 H13        -1.4327    0.1812    1.6982 H         1 <0>         0.1123
     39 H14        -1.9671   -0.7968    0.2946 H         1 <0>         0.1421
     40 H15         1.2078    3.1560   -0.2445 H         1 <0>         0.4268
     41 H16         2.9877    1.8453    0.9430 H         1 <0>         0.1039
     42 H17         3.1393    1.8571   -0.8244 H         1 <0>         0.1248
     43 H18         1.6601   -2.1110    1.8825 H         1 <0>         0.1521
     44 H19         1.1247   -2.3679    0.1915 H         1 <0>         0.1606
     45 H20         3.8575   -0.1866    1.5550 H         1 <0>         0.1008
     46 H21         3.5082   -1.6971    0.6805 H         1 <0>         0.1097
     47 H22         4.5997   -0.7138   -1.3571 H         1 <0>         0.1100
     48 H23         5.0400    0.7144   -0.3904 H         1 <0>         0.1079
     49 H24         7.2823   -0.4600   -1.3153 H         1 <0>         0.4073
     50 H25         8.6465   -1.3364    0.9971 H         1 <0>         0.0954
     51 H26         8.2062   -2.7647    0.0305 H         1 <0>         0.0961
     52 H27        11.2677   -1.0520   -2.2560 H         1 <0>         0.2252
     53 N5          1.1763   -0.3159    0.8041 N.4       1 <0>        -0.3985
     54 H28         1.2337    0.1973    1.6915 H         1 <0>         0.4281
@<TRIPOS>BOND
     1    1    2 1
     2    1   29 1
     3    1   30 1
     4    1   31 1
     5    2    3 1
     6    3    4 1
     7    3   32 1
     8    3   33 1
     9    4    5 1
    10    4   34 1
    11    4   35 1
    12    5    6 1
    13    5   36 1
    14    6    7 2
    15    6    8 1
    16    8    9 1
    17    8   37 1
    18    9   10 1
    19    9   20 1
    20    9   11 1
    21   11   12 1
    22   11   38 1
    23   11   39 1
    24   12   13 1
    25   12   14 1
    26   12   53 1
    27   14   15 2
    28   14   16 am
    29   16   17 1
    30   16   40 1
    31   17   18 1
    32   17   41 1
    33   17   42 1
    34   18   19 1
    35   18   21 1
    36   18   53 1
    37   20   43 1
    38   20   44 1
    39   20   53 1
    40   21   22 1
    41   21   45 1
    42   21   46 1
    43   22   23 1
    44   22   47 1
    45   22   48 1
    46   23   24 2
    47   23   25 am
    48   25   26 1
    49   25   49 1
    50   26   27 1
    51   26   50 1
    52   26   51 1
    53   27   28 3
    54   28   52 1
    55   53   54 1
@<TRIPOS>MOLECULE
ZINC18324024
   56    58     0     0     0
SMALL
USER_CHARGES

@<TRIPOS>ATOM
      1 C1          0.1872    0.8008   -0.3501 C.ar      1 <0>        -0.0972
      2 C2          1.2009    1.7342   -0.2567 C.ar      1 <0>        -0.0049
      3 C3          1.1270    2.7457    0.6833 C.ar      1 <0>        -0.6691
      4 C4          0.0387    2.8263    1.5325 C.ar      1 <0>        -0.0072
      5 C5         -0.9784    1.8961    1.4443 C.ar      1 <0>        -0.1455
      6 C6         -0.9072    0.8790    0.5013 C.ar      1 <0>         0.1796
      7 N1         -1.9359   -0.0645    0.4090 N.pl3     1 <0>        -0.6350
      8 C7         -1.6417   -1.3657    0.2175 C.2       1 <0>         0.5487
      9 S1         -0.0105   -1.8855    0.2311 S.2       1 <0>        -0.5675
     10 N2         -2.6315   -2.2578    0.0152 N.pl3     1 <0>        -0.5710
     11 C8         -4.0250   -1.8120   -0.1193 C.3       1 <0>         0.0967
     12 C9         -4.8880   -2.5812    0.8859 C.3       1 <0>        -0.1511
     13 C10        -4.6863   -4.0843    0.6802 C.3       1 <0>         0.0366
     14 C11        -3.2194   -4.4426    0.9291 C.3       1 <0>        -0.1365
     15 C12        -2.3368   -3.6939   -0.0811 C.3       1 <0>         0.0873
     16 C13        -5.0602   -4.4523   -0.7326 C.2       1 <0>         0.5114
     17 O1         -4.1952   -4.6015   -1.5695 O.2       1 <0>        -0.4658
     18 N3         -6.3558   -4.6156   -1.0659 N.am      1 <0>        -0.8463
     19 N4         -5.5375   -4.8255    1.6203 N.4       1 <0>        -0.3747
     20 C14        -5.1938   -4.4431    2.9952 C.3       1 <0>        -0.0184
     21 C15        -6.1318   -5.1511    3.9752 C.3       1 <0>        -0.1429
     22 C16        -5.9818   -6.6664    3.8125 C.3       1 <0>        -0.1408
     23 C17        -6.2704   -7.0447    2.3568 C.3       1 <0>        -0.1414
     24 C18        -5.3273   -6.2665    1.4368 C.3       1 <0>        -0.0202
     25 S2          2.4227    3.9341    0.7995 S.o2      1 <0>         2.7002
     26 O2          2.3781    4.4557    2.1206 O.2       1 <0>        -0.9597
     27 O3          3.5861    3.3205    0.2617 O.2       1 <0>        -0.9564
     28 N5          2.0340    5.1832   -0.2158 N.pl3     1 <0>        -1.2492
     29 H1          0.2434    0.0137   -1.0874 H         1 <0>         0.1534
     30 H2          2.0524    1.6737   -0.9183 H         1 <0>         0.1522
     31 H3         -0.0159    3.6173    2.2658 H         1 <0>         0.1514
     32 H4         -1.8280    1.9595    2.1080 H         1 <0>         0.1354
     33 H5         -2.8610    0.2178    0.4828 H         1 <0>         0.4057
     34 H6         -4.0884   -0.7436    0.0870 H         1 <0>         0.1034
     35 H7         -4.3767   -2.0123   -1.1314 H         1 <0>         0.1001
     36 H8         -4.5943   -2.3101    1.8999 H         1 <0>         0.1134
     37 H9         -5.9374   -2.3305    0.7312 H         1 <0>         0.1126
     38 H10        -2.9414   -4.1540    1.9428 H         1 <0>         0.1046
     39 H11        -3.0812   -5.5167    0.8053 H         1 <0>         0.1135
     40 H12        -2.5536   -4.0446   -1.0902 H         1 <0>         0.1351
     41 H13        -1.2860   -3.8677    0.1504 H         1 <0>         0.1443
     42 H14        -7.0514   -4.4232   -0.4178 H         1 <0>         0.3982
     43 H15        -6.5928   -4.9256   -1.9540 H         1 <0>         0.4287
     44 H16        -4.1640   -4.7319    3.2055 H         1 <0>         0.1364
     45 H17        -5.2979   -3.3640    3.1085 H         1 <0>         0.1331
     46 H18        -5.8738   -4.8673    4.9955 H         1 <0>         0.1170
     47 H19        -7.1619   -4.8627    3.7659 H         1 <0>         0.0891
     48 H20        -4.9650   -6.9620    4.0712 H         1 <0>         0.0851
     49 H21        -6.6885   -7.1751    4.4682 H         1 <0>         0.0986
     50 H22        -6.1114   -8.1144    2.2204 H         1 <0>         0.1174
     51 H23        -7.3034   -6.7956    2.1140 H         1 <0>         0.0889
     52 H24        -5.5299   -6.5336    0.3996 H         1 <0>         0.1286
     53 H25        -4.2946   -6.5165    1.6803 H         1 <0>         0.1385
     54 H26         1.2125    5.1520   -0.7307 H         1 <0>         0.4161
     55 H27         2.6279    5.9460   -0.2958 H         1 <0>         0.4236
     56 H28        -6.5056   -4.6026    1.4434 H         1 <0>         0.4160
@<TRIPOS>BOND
     1    1    6 ar
     2    1    2 ar
     3    1   29 1
     4    2    3 ar
     5    2   30 1
     6    3    4 ar
     7    3   25 1
     8    4    5 ar
     9    4   31 1
    10    5    6 ar
    11    5   32 1
    12    6    7 1
    13    7    8 1
    14    7   33 1
    15    8    9 2
    16    8   10 1
    17   10   15 1
    18   10   11 1
    19   11   12 1
    20   11   34 1
    21   11   35 1
    22   12   13 1
    23   12   36 1
    24   12   37 1
    25   13   14 1
    26   13   16 1
    27   13   19 1
    28   14   15 1
    29   14   38 1
    30   14   39 1
    31   15   40 1
    32   15   41 1
    33   16   17 2
    34   16   18 am
    35   18   42 1
    36   18   43 1
    37   19   24 1
    38   19   20 1
    39   19   56 1
    40   20   21 1
    41   20   44 1
    42   20   45 1
    43   21   22 1
    44   21   46 1
    45   21   47 1
    46   22   23 1
    47   22   48 1
    48   22   49 1
    49   23   24 1
    50   23   50 1
    51   23   51 1
    52   24   52 1
    53   24   53 1
    54   25   26 2
    55   25   27 2
    56   25   28 1
    57   28   54 1
    58   28   55 1
@<TRIPOS>MOLECULE
ZINC44473704
   56    57     0     0     0
SMALL
USER_CHARGES

@<TRIPOS>ATOM
      1 C1         -0.0187    1.5258    0.0104 C.3       1 <0>        -0.1563
      2 C2          0.0021   -0.0041    0.0020 C.3       1 <0>         0.0552
      3 O1          0.6709   -0.4649   -1.1737 O.3       1 <0>        -0.2992
      4 C3          0.7768   -1.8109   -1.3363 C.ar      1 <0>         0.1151
      5 C4          0.2435   -2.6690   -0.3879 C.ar      1 <0>        -0.1597
      6 C5          0.3516   -4.0370   -0.5549 C.ar      1 <0>        -0.1444
      7 C6          0.9916   -4.5523   -1.6668 C.ar      1 <0>        -0.1088
      8 C7          1.5263   -3.7019   -2.6164 C.ar      1 <0>        -0.1669
      9 C8          1.4160   -2.3297   -2.4582 C.ar      1 <0>         0.1229
     10 O2          1.9361   -1.4917   -3.3945 O.3       1 <0>        -0.2996
     11 C9          2.5780   -2.0947   -4.5199 C.3       1 <0>         0.0168
     12 C10         3.0962   -1.0022   -5.4574 C.3       1 <0>         0.3337
     13 H1          3.5858   -1.4622   -6.3157 H         1 <0>         0.1377
     14 N1          4.0567   -0.1593   -4.7411 N.pl3     1 <0>        -0.7548
     15 C11         5.1572    0.3740   -5.4160 C.ar      1 <0>         0.2121
     16 C12         5.3393    0.1107   -6.7679 C.ar      1 <0>        -0.1903
     17 C13         6.4281    0.6398   -7.4322 C.ar      1 <0>        -0.0434
     18 C14         7.3370    1.4307   -6.7531 C.ar      1 <0>        -0.1667
     19 C15         7.1590    1.6944   -5.4075 C.ar      1 <0>        -0.0712
     20 C16         6.0688    1.1734   -4.7384 C.ar      1 <0>        -0.1622
     21 C17         5.8719    1.4667   -3.2734 C.3       1 <0>        -0.1045
     22 C18         6.6265    0.3547   -8.8986 C.3       1 <0>        -0.1179
     23 O3          2.0013   -0.2011   -5.9063 O.3       1 <0>        -0.5644
     24 C19        -0.2290   -4.9686    0.4775 C.3       1 <0>         0.1140
     25 H2         -0.9756   -4.4371    1.0677 H         1 <0>         0.1132
     26 C20         0.8863   -5.4693    1.3974 C.3       1 <0>         0.0009
     27 N2          0.3427   -6.4682    2.3273 N.4       1 <0>        -0.6305
     28 N3         -0.8598   -6.1125   -0.1946 N.3       1 <0>        -0.8542
     29 H3          1.0039    1.9031    0.0027 H         1 <0>         0.0697
     30 H4         -0.5459    1.8868   -0.8726 H         1 <0>         0.0705
     31 H5         -0.5289    1.8773    0.9072 H         1 <0>         0.0831
     32 H6          0.5293   -0.3651    0.8851 H         1 <0>         0.0611
     33 H7         -1.0205   -0.3814    0.0098 H         1 <0>         0.0627
     34 H8         -0.2563   -2.2690    0.4819 H         1 <0>         0.1389
     35 H9          1.0743   -5.6217   -1.7935 H         1 <0>         0.1262
     36 H10         2.0261   -4.1070   -3.4839 H         1 <0>         0.1416
     37 H11         3.4131   -2.7058   -4.1775 H         1 <0>         0.0802
     38 H12         1.8634   -2.7219   -5.0528 H         1 <0>         0.0865
     39 H13         3.9284    0.0286   -3.7981 H         1 <0>         0.4019
     40 H14         4.6303   -0.5075   -7.2986 H         1 <0>         0.1202
     41 H15         8.1879    1.8431   -7.2749 H         1 <0>         0.1206
     42 H16         7.8710    2.3118   -4.8801 H         1 <0>         0.1224
     43 H17         6.3759    0.7044   -2.6793 H         1 <0>         0.0630
     44 H18         6.2907    2.4455   -3.0394 H         1 <0>         0.0681
     45 H19         4.8068    1.4625   -3.0419 H         1 <0>         0.0562
     46 H20         6.1241    1.1210   -9.4889 H         1 <0>         0.0731
     47 H21         7.6919    0.3592   -9.1287 H         1 <0>         0.0686
     48 H22         6.2070   -0.6222   -9.1388 H         1 <0>         0.0649
     49 H23         1.5184    0.2397   -5.1938 H         1 <0>         0.3840
     50 H24         1.6757   -5.9226    0.7979 H         1 <0>         0.1330
     51 H25         1.2949   -4.6314    1.9624 H         1 <0>         0.1394
     52 H26         1.0783   -6.7984    2.9340 H         1 <0>         0.4360
     53 H27        -0.3880   -6.0486    2.8823 H         1 <0>         0.4348
     54 H28        -1.6416   -5.8143   -0.7585 H         1 <0>         0.3738
     55 H29        -0.1878   -6.6219   -0.7486 H         1 <0>         0.3514
     56 H30        -0.0355   -7.2438    1.8043 H         1 <0>         0.4412
@<TRIPOS>BOND
     1    1    2 1
     2    1   29 1
     3    1   30 1
     4    1   31 1
     5    2    3 1
     6    2   32 1
     7    2   33 1
     8    3    4 1
     9    4    9 ar
    10    4    5 ar
    11    5    6 ar
    12    5   34 1
    13    6    7 ar
    14    6   24 1
    15    7    8 ar
    16    7   35 1
    17    8    9 ar
    18    8   36 1
    19    9   10 1
    20   10   11 1
    21   11   12 1
    22   11   37 1
    23   11   38 1
    24   12   13 1
    25   12   14 1
    26   12   23 1
    27   14   15 1
    28   14   39 1
    29   15   20 ar
    30   15   16 ar
    31   16   17 ar
    32   16   40 1
    33   17   18 ar
    34   17   22 1
    35   18   19 ar
    36   18   41 1
    37   19   20 ar
    38   19   42 1
    39   20   21 1
    40   21   43 1
    41   21   44 1
    42   21   45 1
    43   22   46 1
    44   22   47 1
    45   22   48 1
    46   23   49 1
    47   24   25 1
    48   24   26 1
    49   24   28 1
    50   26   27 1
    51   26   50 1
    52   26   51 1
    53   27   52 1
    54   27   53 1
    55   27   56 1
    56   28   54 1
    57   28   55 1
@<TRIPOS>MOLECULE
ZINC26150637
   54    56     0     0     0
SMALL
USER_CHARGES

@<TRIPOS>ATOM
      1 C1         -0.4831    2.0382    1.1467 C.ar      1 <0>        -0.1720
      2 C2          0.7423    2.6740    1.0161 C.ar      1 <0>        -0.0237
      3 C3          1.8752    1.8940    0.8431 C.ar      1 <0>        -0.1617
      4 C4          1.7466    0.5182    0.8068 C.ar      1 <0>         0.1007
      5 N1          0.5646   -0.0523    0.9340 N.ar      1 <0>        -0.4839
      6 C5         -0.5340    0.6581    1.1004 C.ar      1 <0>         0.1063
      7 C6          3.2298    2.5378    0.6960 C.3       1 <0>         0.2099
      8 H1          3.1067    3.5786    0.3965 H         1 <0>         0.1137
      9 C7          3.9717    2.4761    2.0326 C.3       1 <0>        -0.1283
     10 C8          3.2655    3.3466    3.0398 C.2       1 <0>         0.4814
     11 O1          2.2284    3.8920    2.7452 O.2       1 <0>        -0.5070
     12 O2          3.7886    3.5161    4.2643 O.3       1 <0>        -0.5054
     13 N2          4.0015    1.8240   -0.3244 N.am      1 <0>        -0.7203
     14 C9          5.0467    2.4279   -0.9239 C.2       1 <0>         0.6059
     15 O3          5.2935    3.5955   -0.6854 O.2       1 <0>        -0.5106
     16 C10         5.8861    1.6784   -1.8631 C.2       1 <0>        -0.2442
     17 C11         6.9980    2.1046   -2.5735 C.2       1 <0>        -0.0643
     18 C12         7.5838    1.1638   -3.3862 C.2       1 <0>        -0.1674
     19 C13         7.0535   -0.0829   -3.4397 C.2       1 <0>        -0.2101
     20 S1          5.7483   -0.0210   -2.3839 S.3       1 <0>         0.2131
     21 C14         7.5301   -1.2575   -4.2547 C.3       1 <0>        -0.0246
     22 C15         8.5442   -2.0646   -3.4416 C.3       1 <0>        -0.1354
     23 C16         9.0208   -3.2392   -4.2566 C.2       1 <0>         0.5422
     24 O4          8.5918   -3.4136   -5.3770 O.2       1 <0>        -0.4806
     25 N3          9.9239   -4.0958   -3.7399 N.am      1 <0>        -0.6719
     26 C17        10.4548   -5.0924   -4.5258 C.cat     1 <0>         0.7235
     27 N4         11.2073   -6.0154   -3.9496 N.pl3     1 <0>        -0.6604
     28 C18        11.8094   -7.1040   -4.7210 C.3       1 <0>         0.0911
     29 C19        10.9240   -7.4068   -5.9352 C.3       1 <0>        -0.1681
     30 C20        10.7202   -6.1067   -6.7213 C.3       1 <0>         0.0795
     31 N5         10.1840   -5.0849   -5.8207 N.pl3     1 <0>        -0.6364
     32 H2         -1.3858    2.6142    1.2874 H         1 <0>         0.1403
     33 H3          0.8124    3.7512    1.0481 H         1 <0>         0.1472
     34 H4          2.6243   -0.0966    0.6723 H         1 <0>         0.1481
     35 H5         -1.4844    0.1553    1.2017 H         1 <0>         0.1595
     36 H6          3.9895    1.4468    2.3911 H         1 <0>         0.1125
     37 H7          4.9932    2.8316    1.8979 H         1 <0>         0.1176
     38 H8          3.2651    4.0906    4.8396 H         1 <0>         0.4132
     39 H9          3.7603    0.9167   -0.5685 H         1 <0>         0.4020
     40 H10         7.3791    3.1120   -2.4936 H         1 <0>         0.1549
     41 H11         8.4544    1.4142   -3.9742 H         1 <0>         0.1409
     42 H12         6.6809   -1.8919   -4.5089 H         1 <0>         0.0966
     43 H13         8.0016   -0.8978   -5.1693 H         1 <0>         0.1023
     44 H14         9.3934   -1.4303   -3.1874 H         1 <0>         0.1277
     45 H15         8.0727   -2.4243   -2.5270 H         1 <0>         0.1241
     46 H16        12.8019   -6.8058   -5.0589 H         1 <0>         0.1069
     47 H17        11.8878   -7.9936   -4.0960 H         1 <0>         0.1266
     48 H18        11.4117   -8.1469   -6.5697 H         1 <0>         0.1301
     49 H19         9.9595   -7.7883   -5.6001 H         1 <0>         0.0951
     50 H20        11.6747   -5.7738   -7.1290 H         1 <0>         0.1076
     51 H21        10.0154   -6.2792   -7.5347 H         1 <0>         0.1253
     52 H22         9.6194   -4.3840   -6.1824 H         1 <0>         0.4447
     53 H23        10.1996   -4.0097   -2.8139 H         1 <0>         0.4468
     54 H24        11.3641   -5.9694   -2.9935 H         1 <0>         0.4389
@<TRIPOS>BOND
     1    1    6 ar
     2    1    2 ar
     3    1   32 1
     4    2    3 ar
     5    2   33 1
     6    3    4 ar
     7    3    7 1
     8    4    5 ar
     9    4   34 1
    10    5    6 ar
    11    6   35 1
    12    7    8 1
    13    7    9 1
    14    7   13 1
    15    9   10 1
    16    9   36 1
    17    9   37 1
    18   10   11 2
    19   10   12 1
    20   12   38 1
    21   13   14 am
    22   13   39 1
    23   14   15 2
    24   14   16 1
    25   16   20 1
    26   16   17 2
    27   17   18 1
    28   17   40 1
    29   18   19 2
    30   18   41 1
    31   19   20 1
    32   19   21 1
    33   21   42 1
    34   21   43 1
    35   21   22 1
    36   22   23 1
    37   22   44 1
    38   22   45 1
    39   23   25 am
    40   23   24 2
    41   25   26 1
    42   25   53 1
    43   26   27 2
    44   26   31 1
    45   27   28 1
    46   27   54 1
    47   28   29 1
    48   28   46 1
    49   28   47 1
    50   29   30 1
    51   29   48 1
    52   29   49 1
    53   30   31 1
    54   30   50 1
    55   30   51 1
    56   31   52 1
@<TRIPOS>MOLECULE
ZINC63660402
   44    45     0     0     0
SMALL
USER_CHARGES

@<TRIPOS>ATOM
      1 C1         -0.0167    1.3769    0.0096 C.ar      1 <0>        -0.0664
      2 C2          1.1703    2.0866    0.0021 C.ar      1 <0>        -0.1610
      3 C3          2.3799    1.4169   -0.0135 C.ar      1 <0>        -0.0597
      4 C4          2.4062    0.0351   -0.0216 C.ar      1 <0>        -0.1078
      5 C5          1.2148   -0.6807   -0.0136 C.ar      1 <0>         0.2243
      6 C6          0.0021   -0.0041    0.0020 C.ar      1 <0>        -0.1914
      7 N1          1.2372   -2.0780   -0.0222 N.pl3     1 <0>        -0.7356
      8 C7         -0.0196   -2.8308   -0.0137 C.3       1 <0>         0.1195
      9 C8          0.2794   -4.3078   -0.0256 C.2       1 <0>         0.5113
     10 O1          1.4291   -4.6936   -0.0398 O.2       1 <0>        -0.5104
     11 N2         -0.7308   -5.1999   -0.0206 N.am      1 <0>        -0.5297
     12 N3         -0.4528   -6.5730   -0.0317 N.am      1 <0>        -0.5262
     13 C9         -1.4630   -7.4651   -0.0266 C.2       1 <0>         0.7161
     14 O2         -1.2217   -8.6568   -0.0362 O.2       1 <0>        -0.5585
     15 N4         -2.7406   -7.0364   -0.0108 N.am      1 <0>        -0.7479
     16 C10        -3.8387   -8.0061   -0.0053 C.3       1 <0>         0.1384
     17 C11        -5.1757   -7.2625    0.0129 C.3       1 <0>        -0.1553
     18 C12        -6.3225   -8.2753    0.0186 C.3       1 <0>         0.0954
     19 N5         -7.6028   -7.5633    0.0361 N.pl3     1 <0>        -0.4091
     20 C13        -8.2983   -7.1699    1.1475 C.2       1 <0>         0.0256
     21 C14        -9.4125   -6.5519    0.7113 C.2       1 <0>         0.0049
     22 N6         -9.3977   -6.5676   -0.6298 N.pl3     1 <0>        -0.4758
     23 C15        -8.3142   -7.1673   -1.0413 C.cat     1 <0>         0.2891
     24 Cl1         3.9251   -0.8053   -0.0422 Cl        1 <0>        -0.0651
     25 H1         -0.9595    1.9034    0.0259 H         1 <0>         0.1290
     26 H2          1.1524    3.1664    0.0080 H         1 <0>         0.1312
     27 H3          3.3050    1.9742   -0.0197 H         1 <0>         0.1357
     28 H4         -0.9255   -0.5573    0.0082 H         1 <0>         0.1273
     29 H5          2.0848   -2.5494   -0.0337 H         1 <0>         0.4171
     30 H6         -0.5861   -2.5820    0.8837 H         1 <0>         0.0999
     31 H7         -0.6045   -2.5713   -0.8962 H         1 <0>         0.0998
     32 H8         -1.6503   -4.8913   -0.0092 H         1 <0>         0.4190
     33 H9          0.4667   -6.8816   -0.0430 H         1 <0>         0.4494
     34 H10        -2.9331   -6.0857   -0.0032 H         1 <0>         0.3926
     35 H11        -3.7801   -8.6264   -0.8997 H         1 <0>         0.0817
     36 H12        -3.7618   -8.6371    0.8801 H         1 <0>         0.0819
     37 H13        -5.2343   -6.6422    0.9073 H         1 <0>         0.0897
     38 H14        -5.2527   -6.6315   -0.8726 H         1 <0>         0.0876
     39 H15        -6.2640   -8.8956   -0.8757 H         1 <0>         0.1282
     40 H16        -6.2456   -8.9062    0.9041 H         1 <0>         0.1309
     41 H17        -8.0092   -7.3254    2.1764 H         1 <0>         0.2236
     42 H18       -10.1829   -6.1195    1.3325 H         1 <0>         0.2244
     43 H19        -8.0342   -7.3234   -2.0726 H         1 <0>         0.2604
     44 H20       -10.0826   -6.1895   -1.2033 H         1 <0>         0.4661
@<TRIPOS>BOND
     1    1    6 ar
     2    1    2 ar
     3    1   25 1
     4    2    3 ar
     5    2   26 1
     6    3    4 ar
     7    3   27 1
     8    4    5 ar
     9    4   24 1
    10    5    6 ar
    11    5    7 1
    12    6   28 1
    13    7    8 1
    14    7   29 1
    15    8    9 1
    16    8   30 1
    17    8   31 1
    18    9   10 2
    19    9   11 am
    20   11   12 1
    21   11   32 1
    22   12   13 am
    23   12   33 1
    24   13   14 2
    25   13   15 am
    26   15   16 1
    27   15   34 1
    28   16   17 1
    29   16   35 1
    30   16   36 1
    31   17   18 1
    32   17   37 1
    33   17   38 1
    34   18   19 1
    35   18   39 1
    36   18   40 1
    37   19   23 1
    38   19   20 1
    39   20   21 2
    40   20   41 1
    41   21   22 1
    42   21   42 1
    43   22   23 2
    44   22   44 1
    45   23   43 1
@<TRIPOS>MOLECULE
ZINC02107427
   55    58     0     0     0
SMALL
USER_CHARGES
2-[[2-[[2-(5,9-dimethyl-7-oxo-3-phenyl-pyrano[5,6-f]benzofuran-6-yl)acetyl]amino]acetyl]amino]acetic acid
@<TRIPOS>ATOM
      1 C1         -2.4438    1.0057   -2.4732 C.3       1 <0>        -0.1330
      2 C2         -2.9820    0.5109   -1.1554 C.2       1 <0>         0.0420
      3 C3         -4.0787   -0.4608   -1.1073 C.ar      1 <0>        -0.1451
      4 C4         -4.6512   -0.9506   -2.2819 C.ar      1 <0>        -0.0090
      5 C5         -5.6896   -1.8646   -2.2010 C.ar      1 <0>        -0.1318
      6 C6         -6.5095   -2.5760   -3.2011 C.2       1 <0>        -0.1315
      7 C7         -7.3725   -3.3408   -2.4957 C.2       1 <0>         0.0273
      8 O1         -7.1671   -3.1723   -1.1786 O.3       1 <0>        -0.1811
      9 C8         -6.1676   -2.2961   -0.9482 C.ar      1 <0>         0.1036
     10 C9         -5.5950   -1.8041    0.2160 C.ar      1 <0>        -0.0889
     11 C10        -4.5563   -0.8919    0.1475 C.ar      1 <0>         0.1676
     12 O2         -3.9947   -0.4093    1.2789 O.3       1 <0>        -0.2643
     13 C11        -2.9872    0.4759    1.2397 C.2       1 <0>         0.5253
     14 O3         -2.5140    0.8818    2.2858 O.2       1 <0>        -0.4526
     15 C12        -2.4616    0.9495    0.0189 C.2       1 <0>        -0.1988
     16 C13        -1.3296    1.9443    0.0189 C.3       1 <0>        -0.0859
     17 C14        -0.0144    1.2086    0.0087 C.2       1 <0>         0.5195
     18 O4          0.0021   -0.0041    0.0020 O.2       1 <0>        -0.5366
     19 N1          1.1435    1.8983    0.0013 N.am      1 <0>        -0.7135
     20 C15         2.4220    1.1832   -0.0147 C.3       1 <0>         0.1004
     21 C16         3.5540    2.1779   -0.0202 C.2       1 <0>         0.5004
     22 O5          3.3163    3.3672   -0.0115 O.2       1 <0>        -0.5561
     23 N2          4.8306    1.7460   -0.0347 N.am      1 <0>        -0.6965
     24 C17         5.9311    2.7131   -0.0400 C.3       1 <0>         0.0758
     25 C18         7.2462    1.9774   -0.0565 C.2       1 <0>         0.4587
     26 O6          7.2626    0.7693   -0.0632 O.co2     1 <0>        -0.6342
     27 C19        -6.1047   -2.2642    1.5575 C.3       1 <0>        -0.1089
     28 C20        -6.4081   -2.4723   -4.6765 C.ar      1 <0>        -0.0195
     29 C21        -6.3960   -1.2209   -5.2907 C.ar      1 <0>        -0.1049
     30 C22        -6.2966   -1.1304   -6.6642 C.ar      1 <0>        -0.1165
     31 C23        -6.2197   -2.2785   -7.4319 C.ar      1 <0>        -0.1167
     32 C24        -6.2366   -3.5231   -6.8283 C.ar      1 <0>        -0.1165
     33 C25        -6.3304   -3.6259   -5.4554 C.ar      1 <0>        -0.1072
     34 H1         -1.6354    0.3534   -2.8035 H         1 <0>         0.0960
     35 H2         -3.2413    1.0008   -3.2163 H         1 <0>         0.0808
     36 H3         -2.0654    2.0209   -2.3530 H         1 <0>         0.0876
     37 H4         -4.2873   -0.6221   -3.2442 H         1 <0>         0.1460
     38 H5         -8.1182   -3.9917   -2.9277 H         1 <0>         0.2151
     39 H6         -1.3916    2.5653    0.9126 H         1 <0>         0.1169
     40 H7         -1.4000    2.5749   -0.8673 H         1 <0>         0.1146
     41 H8          1.1304    2.8682    0.0067 H         1 <0>         0.4129
     42 H9          2.4967    0.5526    0.8712 H         1 <0>         0.0992
     43 H10         2.4797    0.5621   -0.9086 H         1 <0>         0.0991
     44 H11         5.0208    0.7949   -0.0416 H         1 <0>         0.4110
     45 H12         5.8563    3.3437   -0.9259 H         1 <0>         0.0755
     46 H13         5.8733    3.3341    0.8539 H         1 <0>         0.0756
     47 H14        -6.9054   -1.6027    1.8883 H         1 <0>         0.0772
     48 H15        -6.4860   -3.2817    1.4718 H         1 <0>         0.0737
     49 H16        -5.2913   -2.2409    2.2826 H         1 <0>         0.0800
     50 H17        -6.4604   -0.3239   -4.6926 H         1 <0>         0.1234
     51 H18        -6.2830   -0.1613   -7.1409 H         1 <0>         0.1256
     52 H19        -6.1459   -2.2029   -8.5068 H         1 <0>         0.1236
     53 H20        -6.1760   -4.4161   -7.4327 H         1 <0>         0.1254
     54 H21        -6.3431   -4.5981   -4.9852 H         1 <0>         0.1245
     55 O7          8.3994    2.6643   -0.0638 O.co2     1 <0>        -0.7551
@<TRIPOS>BOND
     1    1    2 1
     2    1   34 1
     3    1   35 1
     4    1   36 1
     5    2   15 2
     6    2    3 1
     7    3   11 ar
     8    3    4 ar
     9    4    5 ar
    10    4   37 1
    11    5    9 ar
    12    5    6 1
    13    6    7 2
    14    6   28 1
    15    7    8 1
    16    7   38 1
    17    8    9 1
    18    9   10 ar
    19   10   11 ar
    20   10   27 1
    21   11   12 1
    22   12   13 1
    23   13   14 2
    24   13   15 1
    25   15   16 1
    26   16   17 1
    27   16   39 1
    28   16   40 1
    29   17   18 2
    30   17   19 am
    31   19   20 1
    32   19   41 1
    33   20   21 1
    34   20   42 1
    35   20   43 1
    36   21   22 2
    37   21   23 am
    38   23   24 1
    39   23   44 1
    40   24   25 1
    41   24   45 1
    42   24   46 1
    43   25   26 2
    44   25   55 1
    45   27   47 1
    46   27   48 1
    47   27   49 1
    48   28   33 ar
    49   28   29 ar
    50   29   30 ar
    51   29   50 1
    52   30   31 ar
    53   30   51 1
    54   31   32 ar
    55   31   52 1
    56   32   33 ar
    57   32   53 1
    58   33   54 1
@<TRIPOS>MOLECULE
ZINC09348792
   48    49     0     0     0
SMALL
USER_CHARGES
N'-[(E)-[1-(4-ethoxyphenyl)-4,6-dioxo-2-thioxo-hexahydropyrimidin-5-ylidene]methyl]pentanehydrazide
@<TRIPOS>ATOM
      1 C1          2.6402    1.9266    0.5956 C.3       1 <0>        -0.1552
      2 C2          2.3985    2.5651    1.9648 C.3       1 <0>        -0.1242
      3 C3          1.5035    3.7955    1.8029 C.3       1 <0>        -0.1085
      4 C4          1.2618    4.4340    3.1721 C.3       1 <0>        -0.1285
      5 C5          0.3804    5.6459    3.0127 C.2       1 <0>         0.5099
      6 O1         -0.0155    5.9672    1.9123 O.2       1 <0>        -0.5267
      7 N1          0.0320    6.3726    4.0930 N.am      1 <0>        -0.5528
      8 N2         -0.7875    7.4992    3.9447 N.pl3     1 <0>        -0.4734
      9 C6         -1.1360    8.2263    5.0255 C.2       1 <0>         0.2971
     10 C7         -1.8378    9.4066    4.8674 C.2       1 <0>        -0.4386
     11 C8         -2.1063    9.9690    3.5316 C.2       1 <0>         0.5486
     12 O2         -1.7153    9.4057    2.5264 O.3       1 <0>        -0.5521
     13 N3         -2.7975   11.1248    3.4536 N.2       1 <0>        -0.6258
     14 C9         -3.2339   11.7556    4.5528 C.2       1 <0>         0.5500
     15 S1         -4.1027   13.2177    4.3572 S.2       1 <0>        -0.7010
     16 N4         -3.0260   11.3026    5.7971 N.am      1 <0>        -0.5056
     17 C10        -2.3557   10.1546    6.0268 C.2       1 <0>         0.5810
     18 O3         -2.1784    9.7508    7.1608 O.2       1 <0>        -0.5406
     19 C11        -3.5227   12.0354    6.8850 C.ar      1 <0>         0.1318
     20 C12        -2.6927   12.9151    7.5667 C.ar      1 <0>        -0.0548
     21 C13        -3.1839   13.6409    8.6337 C.ar      1 <0>        -0.1986
     22 C14        -4.5032   13.4820    9.0324 C.ar      1 <0>         0.1265
     23 C15        -5.3314   12.5989    8.3552 C.ar      1 <0>        -0.1418
     24 C16        -4.8430   11.8772    7.2841 C.ar      1 <0>        -0.0462
     25 O4         -4.9846   14.1924   10.0869 O.3       1 <0>        -0.3179
     26 C17        -4.0765   15.0833   10.7378 C.3       1 <0>         0.0518
     27 C18        -4.7928   15.7890   11.8910 C.3       1 <0>        -0.1524
     28 H1          3.2836    1.0420    0.7120 H         1 <0>         0.0539
     29 H2          3.1330    2.6540   -0.0663 H         1 <0>         0.0557
     30 H3          1.6777    1.6248    0.1568 H         1 <0>         0.0555
     31 H4          1.9057    1.8377    2.6267 H         1 <0>         0.0624
     32 H5          3.3609    2.8669    2.4037 H         1 <0>         0.0626
     33 H6          1.9963    4.5228    1.1410 H         1 <0>         0.0730
     34 H7          0.5411    3.4937    1.3640 H         1 <0>         0.0726
     35 H8          0.7689    3.7067    3.8340 H         1 <0>         0.0989
     36 H9          2.2242    4.7358    3.6110 H         1 <0>         0.0990
     37 H10         0.3910    6.0812    5.0911 H         1 <0>         0.4432
     38 H11        -1.1466    7.7906    2.9466 H         1 <0>         0.4790
     39 H12        -0.8618    7.8802    6.0330 H         1 <0>         0.1600
     40 H13        -1.6642   13.0350    7.2596 H         1 <0>         0.1199
     41 H14        -2.5395   14.3286    9.1613 H         1 <0>         0.1267
     42 H15        -6.3586   12.4761    8.6655 H         1 <0>         0.1309
     43 H16        -5.4879   11.1899    6.7567 H         1 <0>         0.1259
     44 H17        -3.2220   14.5131   11.1311 H         1 <0>         0.0603
     45 H18        -3.7170   15.8320   10.0165 H         1 <0>         0.0625
     46 H19        -4.0937   16.4748   12.3920 H         1 <0>         0.0755
     47 H20        -5.1523   15.0403   12.6123 H         1 <0>         0.0646
     48 H21        -5.6473   16.3592   11.4977 H         1 <0>         0.0659
@<TRIPOS>BOND
     1    1    2 1
     2    1   28 1
     3    1   29 1
     4    1   30 1
     5    2    3 1
     6    2   31 1
     7    2   32 1
     8    3    4 1
     9    3   33 1
    10    3   34 1
    11    4    5 1
    12    4   35 1
    13    4   36 1
    14    5    6 2
    15    5    7 am
    16    7    8 1
    17    7   37 1
    18    8    9 1
    19    8   38 1
    20    9   10 2
    21    9   39 1
    22   10   17 1
    23   10   11 1
    24   11   12 1
    25   11   13 2
    26   13   14 1
    27   14   15 2
    28   14   16 1
    29   16   17 am
    30   16   19 1
    31   17   18 2
    32   19   24 ar
    33   19   20 ar
    34   20   21 ar
    35   20   40 1
    36   21   22 ar
    37   21   41 1
    38   22   23 ar
    39   22   25 1
    40   23   24 ar
    41   23   42 1
    42   24   43 1
    43   25   26 1
    44   26   27 1
    45   26   44 1
    46   26   45 1
    47   27   46 1
    48   27   47 1
    49   27   48 1
@<TRIPOS>MOLECULE
ZINC41289553
   43    45     0     0     0
SMALL
USER_CHARGES

@<TRIPOS>ATOM
      1 C1          0.3171    0.8110   -1.1401 C.ar      1 <0>        -0.0872
      2 C2          1.4998    1.5215   -1.1462 C.ar      1 <0>        -0.1516
      3 C3          2.3492    1.4665   -0.0531 C.ar      1 <0>         0.1093
      4 C4          2.0158    0.6986    1.0508 C.ar      1 <0>        -0.1483
      5 C5          0.8352   -0.0154    1.0662 C.ar      1 <0>        -0.0706
      6 C6         -0.0228    0.0368   -0.0315 C.ar      1 <0>        -0.0597
      7 C7         -1.2925   -0.7280   -0.0198 C.2       1 <0>        -0.0396
      8 C8         -2.2288   -0.4952    0.9296 C.2       1 <0>        -0.1635
      9 S1         -3.5324   -1.6392    0.5181 S.3       1 <0>         0.1116
     10 C9         -2.8000   -2.3991   -0.9067 C.ar      1 <0>         0.1551
     11 C10        -1.5590   -1.7416   -1.0350 C.ar      1 <0>        -0.2513
     12 C11        -0.7540   -2.1654   -2.1257 C.ar      1 <0>         0.4932
     13 N1         -1.2042   -3.1151   -2.9303 N.ar      1 <0>        -0.5806
     14 C12        -2.3821   -3.6855   -2.7535 C.ar      1 <0>         0.3709
     15 N2         -3.1692   -3.3413   -1.7526 N.ar      1 <0>        -0.5294
     16 N3          0.4859   -1.5920   -2.3449 N.pl3     1 <0>        -0.7030
     17 C13         1.2504   -1.9368   -3.5460 C.3       1 <0>         0.1367
     18 C14         2.5747   -1.1705   -3.5451 C.3       1 <0>        -0.1567
     19 C15         3.3611   -1.5251   -4.7807 C.2       1 <0>         0.5111
     20 O1          2.9072   -2.3132   -5.5831 O.2       1 <0>        -0.5362
     21 N4          4.5690   -0.9665   -4.9942 N.am      1 <0>        -0.7264
     22 C16         5.3335   -1.3113   -6.1954 C.3       1 <0>         0.1398
     23 C17         6.6578   -0.5450   -6.1945 C.3       1 <0>        -0.1957
     24 C18         7.4442   -0.8997   -7.4301 C.2       1 <0>         0.4948
     25 O2          6.9878   -1.6920   -8.2367 O.co2     1 <0>        -0.6920
     26 O3          8.5369   -0.3944   -7.6232 O.co2     1 <0>        -0.7007
     27 F1          3.5064    2.1635   -0.0638 F         1 <0>        -0.1321
     28 H1         -0.3465    0.8581   -1.9909 H         1 <0>         0.1387
     29 H2          1.7641    2.1212   -2.0047 H         1 <0>         0.1450
     30 H3          2.6812    0.6585    1.9005 H         1 <0>         0.1430
     31 H4          0.5764   -0.6140    1.9271 H         1 <0>         0.1397
     32 H5         -2.1942    0.2147    1.7429 H         1 <0>         0.1965
     33 H6         -2.7041   -4.4562   -3.4381 H         1 <0>         0.2093
     34 H7          0.8490   -0.9617   -1.7032 H         1 <0>         0.4109
     35 H8          1.4507   -3.0082   -3.5542 H         1 <0>         0.0840
     36 H9          0.6756   -1.6678   -4.4322 H         1 <0>         0.0824
     37 H10         2.3744   -0.0990   -3.5370 H         1 <0>         0.0956
     38 H11         3.1495   -1.4394   -2.6589 H         1 <0>         0.0957
     39 H12         4.9321   -0.3362   -4.3525 H         1 <0>         0.3953
     40 H13         5.5337   -2.3828   -6.2035 H         1 <0>         0.0698
     41 H14         4.7587   -1.0424   -7.0816 H         1 <0>         0.0699
     42 H15         6.4575    0.5264   -6.1864 H         1 <0>         0.0633
     43 H16         7.2326   -0.8140   -5.3083 H         1 <0>         0.0633
@<TRIPOS>BOND
     1    1    6 ar
     2    1    2 ar
     3    1   28 1
     4    2    3 ar
     5    2   29 1
     6    3    4 ar
     7    3   27 1
     8    4    5 ar
     9    4   30 1
    10    5    6 ar
    11    5   31 1
    12    6    7 1
    13    7   11 1
    14    7    8 2
    15    8    9 1
    16    8   32 1
    17    9   10 1
    18   10   15 ar
    19   10   11 ar
    20   11   12 ar
    21   12   13 ar
    22   12   16 1
    23   13   14 ar
    24   14   15 ar
    25   14   33 1
    26   16   17 1
    27   16   34 1
    28   17   18 1
    29   17   35 1
    30   17   36 1
    31   18   19 1
    32   18   37 1
    33   18   38 1
    34   19   20 2
    35   19   21 am
    36   21   22 1
    37   21   39 1
    38   22   23 1
    39   22   40 1
    40   22   41 1
    41   23   24 1
    42   23   42 1
    43   23   43 1
    44   24   25 2
    45   24   26 1
@<TRIPOS>MOLECULE
ZINC55596682
   46    48     0     0     0
SMALL
USER_CHARGES

@<TRIPOS>ATOM
      1 C1         -0.0184    1.5028    0.0103 C.3       1 <0>        -0.0513
      2 C2          0.0021   -0.0041    0.0020 C.2       1 <0>         0.2066
      3 N1          0.0075   -0.7685   -1.0867 N.2       1 <0>        -0.4771
      4 C3          0.0263   -2.0397   -0.7382 C.2       1 <0>         0.3727
      5 N2          0.0333   -2.0972    0.6138 N.pl3     1 <0>        -0.5057
      6 H1          0.0472   -2.8971    1.1622 H         1 <0>         0.4283
      7 N3          0.0230   -0.7670    1.0638 N.2       1 <0>        -0.3498
      8 C4          0.0378   -3.1955   -1.6594 C.ar      1 <0>        -0.1315
      9 C5          0.0515   -4.4955   -1.1534 C.ar      1 <0>        -0.0477
     10 C6          0.0622   -5.5702   -2.0177 C.ar      1 <0>        -0.2287
     11 C7          0.0599   -5.3657   -3.3873 C.ar      1 <0>        -0.0431
     12 C8          0.0464   -4.0843   -3.9019 C.ar      1 <0>        -0.2620
     13 C9          0.0292   -2.9916   -3.0460 C.ar      1 <0>         0.3247
     14 N4          0.0093   -1.6982   -3.5629 N.2       1 <0>        -1.0207
     15 S1         -0.0008   -1.4616   -5.2019 S.o2      1 <0>         2.5904
     16 O1          1.2491   -1.9316   -5.6878 O.2       1 <0>        -1.0243
     17 O2         -1.2414   -1.9659   -5.6774 O.2       1 <0>        -1.0277
     18 C10        -0.0259    0.2786   -5.4769 C.ar      1 <0>        -0.6148
     19 C11        -1.2349    0.9449   -5.5740 C.ar      1 <0>         0.0070
     20 C12        -1.2634    2.3111   -5.7894 C.ar      1 <0>        -0.1519
     21 C13        -0.0848    3.0184   -5.9093 C.ar      1 <0>        -0.0503
     22 C14         1.1379    2.3525   -5.8124 C.ar      1 <0>        -0.1657
     23 C15         1.1596    0.9747   -5.5893 C.ar      1 <0>         0.0420
     24 C16         2.4047    3.1040   -5.9404 C.2       1 <0>         0.5632
     25 O3          3.4682    2.5214   -5.8556 O.2       1 <0>        -0.5297
     26 N5          2.3804    4.4350   -6.1511 N.am      1 <0>        -0.7289
     27 C17         3.6356    5.1796   -6.2780 C.3       1 <0>         0.1461
     28 C18         3.3336    6.6381   -6.5070 C.2       1 <0>        -0.1762
     29 C19         3.8463    7.5456   -5.7134 C.2       1 <0>        -0.1658
     30 H2          1.0042    1.8801    0.0026 H         1 <0>         0.0746
     31 H3         -0.5455    1.8639   -0.8728 H         1 <0>         0.0813
     32 H4         -0.5286    1.8543    0.9071 H         1 <0>         0.0710
     33 H5          0.0540   -4.6601   -0.0861 H         1 <0>         0.1036
     34 H6          0.0728   -6.5761   -1.6245 H         1 <0>         0.1092
     35 H7          0.0691   -6.2131   -4.0568 H         1 <0>         0.1083
     36 H8          0.0447   -3.9323   -4.9711 H         1 <0>         0.1051
     37 H9         -2.1603    0.3958   -5.4815 H         1 <0>         0.1415
     38 H10        -2.2102    2.8251   -5.8641 H         1 <0>         0.1333
     39 H11        -0.1083    4.0848   -6.0782 H         1 <0>         0.1256
     40 H12         2.1025    0.4542   -5.5090 H         1 <0>         0.1489
     41 H13         1.5317    4.8999   -6.2188 H         1 <0>         0.3999
     42 H14         4.2181    5.0684   -5.3634 H         1 <0>         0.0733
     43 H15         4.2057    4.7898   -7.1213 H         1 <0>         0.0769
     44 H16         2.6944    6.9352   -7.3253 H         1 <0>         0.1152
     45 H17         3.6298    8.5909   -5.8775 H         1 <0>         0.1030
     46 H18         4.4854    7.2485   -4.8951 H         1 <0>         0.1011
@<TRIPOS>BOND
     1    1    2 1
     2    1   30 1
     3    1   31 1
     4    1   32 1
     5    2    7 2
     6    2    3 1
     7    3    4 2
     8    4    5 1
     9    4    8 1
    10    5    6 1
    11    5    7 1
    12    8   13 ar
    13    8    9 ar
    14    9   10 ar
    15    9   33 1
    16   10   11 ar
    17   10   34 1
    18   11   12 ar
    19   11   35 1
    20   12   13 ar
    21   12   36 1
    22   13   14 1
    23   14   15 1
    24   15   16 2
    25   15   17 2
    26   15   18 1
    27   18   23 ar
    28   18   19 ar
    29   19   20 ar
    30   19   37 1
    31   20   21 ar
    32   20   38 1
    33   21   22 ar
    34   21   39 1
    35   22   23 ar
    36   22   24 1
    37   23   40 1
    38   24   25 2
    39   24   26 am
    40   26   27 1
    41   26   41 1
    42   27   28 1
    43   27   42 1
    44   27   43 1
    45   28   29 2
    46   28   44 1
    47   29   45 1
    48   29   46 1
@<TRIPOS>MOLECULE
ZINC63426784
   47    49     0     0     0
SMALL
USER_CHARGES

@<TRIPOS>ATOM
      1 C1         -1.0116    0.3664   -0.3888 C.3       1 <0>        -0.1170
      2 C2          0.4953    0.2343   -0.1593 C.3       1 <0>        -0.1284
      3 C3          0.7451   -0.3922    1.1883 C.2       1 <0>         0.3131
      4 C4          0.7740   -1.8513    1.3242 C.2       1 <0>        -0.4731
      5 C5          1.1567   -2.4605    2.5462 C.2       1 <0>         0.5567
      6 N1          1.1664   -3.8082    2.6199 N.am      1 <0>        -0.6915
      7 C6          0.8155   -4.5556    1.5418 C.2       1 <0>         0.6243
      8 N2          0.4582   -4.0053    0.4016 N.2       1 <0>        -0.6717
      9 C7          0.4178   -2.6817    0.2499 C.2       1 <0>         0.5100
     10 O1          0.0415   -2.1432   -0.9306 O.3       1 <0>        -0.6998
     11 O2          0.8344   -5.8993    1.6427 O.3       1 <0>        -0.7085
     12 O3          1.4705   -1.7820    3.5088 O.2       1 <0>        -0.5805
     13 N3          0.9349    0.3606    2.2291 N.2       1 <0>        -0.5820
     14 C8          0.7755    1.8130    2.1215 C.3       1 <0>         0.0903
     15 H1          0.4041    2.0651    1.1281 H         1 <0>         0.0805
     16 C9          2.1273    2.4926    2.3483 C.3       1 <0>        -0.0831
     17 C10         3.0733    2.1120    1.2387 C.2       1 <0>         0.1149
     18 C11         3.3245    2.8114    0.1085 C.ar      1 <0>        -0.1986
     19 C12         2.8109    4.0863   -0.4067 C.ar      1 <0>         0.0059
     20 C13         3.2603    4.5410   -1.5985 C.ar      1 <0>        -0.1707
     21 C14         4.2018    3.8267   -2.3523 C.ar      1 <0>         0.0361
     22 C15         4.7197    2.6486   -1.9452 C.ar      1 <0>        -0.2033
     23 C16         4.3183    2.0768   -0.7064 C.ar      1 <0>         0.3182
     24 N4          4.6680    0.9664   -0.1035 N.pl3     1 <0>        -0.5794
     25 C17         3.9390    0.8741    1.1664 C.3       1 <0>         0.0533
     26 C18        -0.2067    2.2889    3.1606 C.2       1 <0>         0.4571
     27 O4         -0.7208    1.4963    3.9139 O.2       1 <0>        -0.4554
     28 O5         -0.5104    3.5933    3.2494 O.3       1 <0>        -0.3706
     29 C19        -1.4491    3.9737    4.2576 C.3       1 <0>         0.0350
     30 H2         -1.4257    1.0831    0.3204 H         1 <0>         0.0215
     31 H3         -1.1952    0.7138   -1.4055 H         1 <0>         0.0413
     32 H4         -1.4875   -0.6036   -0.2448 H         1 <0>         0.0793
     33 H5          0.9276   -0.3942   -0.9379 H         1 <0>         0.1115
     34 H6          0.9557    1.2217   -0.1920 H         1 <0>         0.0214
     35 H7          1.9933    3.5743    2.3565 H         1 <0>         0.1092
     36 H8          2.5401    2.1703    3.3042 H         1 <0>         0.1181
     37 H9          2.0846    4.6526    0.1574 H         1 <0>         0.1564
     38 H10         2.8838    5.4787   -1.9795 H         1 <0>         0.1483
     39 H11         4.5258    4.2357   -3.2979 H         1 <0>         0.1503
     40 H12         5.4425    2.1373   -2.5636 H         1 <0>         0.1528
     41 H13         4.6379    0.8550    2.0027 H         1 <0>         0.1737
     42 H14         3.3166   -0.0207    1.1757 H         1 <0>         0.1911
     43 H15        -1.0620    3.6957    5.2379 H         1 <0>         0.0575
     44 H16        -1.6048    5.0519    4.2208 H         1 <0>         0.0961
     45 H17        -2.3964    3.4637    4.0830 H         1 <0>         0.0574
     46 H18         5.3051    0.3165   -0.4391 H         1 <0>         0.4515
     47 H19         1.4254   -4.2448    3.4465 H         1 <0>         0.3807
@<TRIPOS>BOND
     1    1    2 1
     2    1   30 1
     3    1   31 1
     4    1   32 1
     5    2    3 1
     6    2   33 1
     7    2   34 1
     8    3    4 1
     9    3   13 2
    10    4    9 2
    11    4    5 1
    12    5    6 am
    13    5   12 2
    14    6    7 1
    15    6   47 1
    16    7    8 2
    17    7   11 1
    18    8    9 1
    19    9   10 1
    20   13   14 1
    21   14   15 1
    22   14   16 1
    23   14   26 1
    24   16   17 1
    25   16   35 1
    26   16   36 1
    27   17   25 1
    28   17   18 2
    29   18   23 ar
    30   18   19 ar
    31   19   20 ar
    32   19   37 1
    33   20   21 ar
    34   20   38 1
    35   21   22 ar
    36   21   39 1
    37   22   23 ar
    38   22   40 1
    39   23   24 2
    40   24   25 1
    41   24   46 1
    42   25   41 1
    43   25   42 1
    44   26   27 2
    45   26   28 1
    46   28   29 1
    47   29   43 1
    48   29   44 1
    49   29   45 1
@<TRIPOS>MOLECULE
ZINC11238240
   43    44     0     0     0
SMALL
USER_CHARGES
N'-[2-(4-ethoxyphenoxy)propanoyl]-2-sulfanyl-pyridine-3-carbohydrazide
@<TRIPOS>ATOM
      1 C1        -14.8578    4.7736    4.1916 C.3       1 <0>        -0.1524
      2 C2        -13.7585    4.1100    3.3598 C.3       1 <0>         0.0540
      3 O1        -12.6961    5.0412    3.1448 O.3       1 <0>        -0.3175
      4 C3        -11.6322    4.6070    2.4177 C.ar      1 <0>         0.0917
      5 C4        -10.5662    5.4594    2.1713 C.ar      1 <0>        -0.1099
      6 C5         -9.4851    5.0180    1.4335 C.ar      1 <0>        -0.1710
      7 C6         -9.4654    3.7222    0.9394 C.ar      1 <0>         0.0971
      8 C7        -10.5337    2.8714    1.1813 C.ar      1 <0>        -0.1075
      9 C8        -11.6128    3.3114    1.9228 C.ar      1 <0>        -0.1680
     10 O2         -8.4010    3.2877    0.2131 O.3       1 <0>        -0.2826
     11 C9         -7.2883    4.1767    0.0972 C.3       1 <0>         0.0801
     12 H1         -7.1717    4.7358    1.0255 H         1 <0>         0.1031
     13 C10        -7.5316    5.1505   -1.0576 C.3       1 <0>        -0.1799
     14 C11        -6.0363    3.3820   -0.1712 C.2       1 <0>         0.5131
     15 O3         -6.1042    2.1836   -0.3452 O.2       1 <0>        -0.5258
     16 N1         -4.8410    4.0030   -0.2180 N.am      1 <0>        -0.5074
     17 N2         -3.6771    3.2642   -0.4675 N.am      1 <0>        -0.5406
     18 C12        -2.4818    3.8852   -0.5143 C.2       1 <0>         0.5534
     19 O4         -2.4136    5.0868   -0.3399 O.2       1 <0>        -0.4634
     20 C13        -1.2573    3.1080   -0.7768 C.ar      1 <0>        -0.2247
     21 C14        -1.3214    1.7251   -0.9836 C.ar      1 <0>        -0.0256
     22 C15        -0.1430    1.0406   -1.2212 C.ar      1 <0>        -0.2531
     23 C16         1.0536    1.7351   -1.2574 C.ar      1 <0>         0.1420
     24 N3          1.0935    3.0384   -1.0647 N.ar      1 <0>        -0.5077
     25 C17        -0.0038    3.7426   -0.8283 C.ar      1 <0>         0.3442
     26 H2        -14.4482    5.0857    5.1523 H         1 <0>         0.0661
     27 H3        -15.2403    5.6447    3.6595 H         1 <0>         0.0658
     28 H4        -15.6682    4.0633    4.3556 H         1 <0>         0.0774
     29 H5        -14.1681    3.7980    2.3991 H         1 <0>         0.0610
     30 H6        -13.3760    3.2390    3.8919 H         1 <0>         0.0612
     31 H7        -10.5813    6.4683    2.5566 H         1 <0>         0.1345
     32 H8         -8.6551    5.6818    1.2416 H         1 <0>         0.1390
     33 H9        -10.5203    1.8638    0.7928 H         1 <0>         0.1359
     34 H10       -12.4427    2.6475    2.1150 H         1 <0>         0.1338
     35 H11        -8.4372    5.7252   -0.8635 H         1 <0>         0.0788
     36 H12        -6.6828    5.8286   -1.1460 H         1 <0>         0.0840
     37 H13        -7.6482    4.5913   -1.9859 H         1 <0>         0.0780
     38 H14        -4.7866    4.9614   -0.0789 H         1 <0>         0.4307
     39 H15        -3.7314    2.3058   -0.6066 H         1 <0>         0.4199
     40 H16        -2.2673    1.2047   -0.9549 H         1 <0>         0.1191
     41 H17        -0.1572   -0.0273   -1.3816 H         1 <0>         0.1226
     42 H18         1.9718    1.1991   -1.4475 H         1 <0>         0.1424
     43 S1          0.1085    5.4831   -0.5779 S.3       1 <0>        -0.7918
@<TRIPOS>BOND
     1    1    2 1
     2    1   26 1
     3    1   27 1
     4    1   28 1
     5    2    3 1
     6    2   29 1
     7    2   30 1
     8    3    4 1
     9    4    9 ar
    10    4    5 ar
    11    5    6 ar
    12    5   31 1
    13    6    7 ar
    14    6   32 1
    15    7    8 ar
    16    7   10 1
    17    8    9 ar
    18    8   33 1
    19    9   34 1
    20   10   11 1
    21   11   12 1
    22   11   13 1
    23   11   14 1
    24   13   35 1
    25   13   36 1
    26   13   37 1
    27   14   15 2
    28   14   16 am
    29   16   17 1
    30   16   38 1
    31   17   18 am
    32   17   39 1
    33   18   19 2
    34   18   20 1
    35   20   25 ar
    36   20   21 ar
    37   21   22 ar
    38   21   40 1
    39   22   23 ar
    40   22   41 1
    41   23   24 ar
    42   23   42 1
    43   24   25 ar
    44   25   43 1
@<TRIPOS>MOLECULE
ZINC13394367
   46    47     0     0     0
SMALL
USER_CHARGES
2-[[4-[[(E)-3-(4-ethylphenyl)prop-2-enoyl]amino]phenyl]sulfonylamino]acetic acid
@<TRIPOS>ATOM
      1 C1          3.7422  -11.1999    0.5576 C.3       1 <0>        -0.1476
      2 C2          3.6584  -10.5765   -0.8372 C.3       1 <0>        -0.0893
      3 C3          3.6427   -9.0745   -0.7159 C.ar      1 <0>        -0.0679
      4 C4          4.8343   -8.3706   -0.7246 C.ar      1 <0>        -0.1217
      5 C5          4.8282   -6.9962   -0.6137 C.ar      1 <0>        -0.0880
      6 C6          3.6137   -6.3136   -0.4926 C.ar      1 <0>        -0.0853
      7 C7          2.4142   -7.0323   -0.4798 C.ar      1 <0>        -0.0947
      8 C8          2.4366   -8.4061   -0.5960 C.ar      1 <0>        -0.1212
      9 C9          3.5983   -4.8465   -0.3732 C.2       1 <0>        -0.0063
     10 C10         2.4254   -4.1918   -0.2567 C.2       1 <0>        -0.2188
     11 C11         2.4101   -2.7329   -0.1379 C.2       1 <0>         0.5486
     12 O1          3.4562   -2.1108   -0.1444 O.2       1 <0>        -0.5188
     13 N1          1.2377   -2.0785   -0.0214 N.am      1 <0>        -0.6705
     14 C12         1.2146   -0.6805   -0.0190 C.ar      1 <0>         0.1961
     15 C13         2.1371    0.0321   -0.7743 C.ar      1 <0>        -0.1446
     16 C14         2.1118    1.4129   -0.7693 C.ar      1 <0>         0.0026
     17 C15         1.1694    2.0860   -0.0136 C.ar      1 <0>        -0.6874
     18 C16         0.2495    1.3796    0.7395 C.ar      1 <0>         0.0023
     19 C17         0.2693   -0.0013    0.7390 C.ar      1 <0>        -0.1672
     20 S1          1.1409    3.8478   -0.0097 S.o2      1 <0>         2.6956
     21 O2          0.5133    4.2412    1.2029 O.2       1 <0>        -0.9635
     22 O3          2.4487    4.2759   -0.3645 O.2       1 <0>        -0.9686
     23 N2          0.1376    4.3240   -1.2381 N.pl3     1 <0>        -1.0942
     24 C18        -1.2912    4.0052   -1.1822 C.3       1 <0>         0.0739
     25 C19        -2.0324    4.8410   -2.1937 C.2       1 <0>         0.4645
     26 O4         -1.4290    5.6228   -2.8898 O.co2     1 <0>        -0.6285
     27 H1          4.6549  -10.8656    1.0507 H         1 <0>         0.0563
     28 H2          2.8777  -10.8919    1.1457 H         1 <0>         0.0564
     29 H3          3.7536  -12.2863    0.4699 H         1 <0>         0.0593
     30 H4          2.7457  -10.9108   -1.3303 H         1 <0>         0.0737
     31 H5          4.5229  -10.8845   -1.4253 H         1 <0>         0.0735
     32 H6          5.7714   -8.8992   -0.8182 H         1 <0>         0.1258
     33 H7          5.7589   -6.4483   -0.6199 H         1 <0>         0.1294
     34 H8          1.4725   -6.5125   -0.3825 H         1 <0>         0.1284
     35 H9          1.5109   -8.9624   -0.5897 H         1 <0>         0.1256
     36 H10         4.5266   -4.2945   -0.3789 H         1 <0>         0.1383
     37 H11         1.4971   -4.7438   -0.2509 H         1 <0>         0.1335
     38 H12         0.4099   -2.5774    0.0607 H         1 <0>         0.4150
     39 H13         2.8731   -0.4930   -1.3650 H         1 <0>         0.1419
     40 H14         2.8316    1.9677   -1.3528 H         1 <0>         0.1443
     41 H15        -0.4854    1.9083    1.3283 H         1 <0>         0.1469
     42 H16        -0.4496   -0.5525    1.3270 H         1 <0>         0.1355
     43 H17         0.4959    4.8141   -1.9946 H         1 <0>         0.4242
     44 H18        -1.4368    2.9486   -1.4072 H         1 <0>         0.0682
     45 H19        -1.6726    4.2199   -0.1839 H         1 <0>         0.0843
     46 O5         -3.3628    4.7170   -2.3212 O.co2     1 <0>        -0.7603
@<TRIPOS>BOND
     1    1    2 1
     2    1   27 1
     3    1   28 1
     4    1   29 1
     5    2    3 1
     6    2   30 1
     7    2   31 1
     8    3    8 ar
     9    3    4 ar
    10    4    5 ar
    11    4   32 1
    12    5    6 ar
    13    5   33 1
    14    6    7 ar
    15    6    9 1
    16    7    8 ar
    17    7   34 1
    18    8   35 1
    19    9   10 2
    20    9   36 1
    21   10   11 1
    22   10   37 1
    23   11   12 2
    24   11   13 am
    25   13   14 1
    26   13   38 1
    27   14   19 ar
    28   14   15 ar
    29   15   16 ar
    30   15   39 1
    31   16   17 ar
    32   16   40 1
    33   17   18 ar
    34   17   20 1
    35   18   19 ar
    36   18   41 1
    37   19   42 1
    38   20   21 2
    39   20   22 2
    40   20   23 1
    41   23   24 1
    42   23   43 1
    43   24   25 1
    44   24   44 1
    45   24   45 1
    46   25   26 2
    47   25   46 1
@<TRIPOS>MOLECULE
ZINC13253150
   52    54     0     0     0
SMALL
USER_CHARGES

@<TRIPOS>ATOM
      1 C1          2.2196   -4.4076    2.3012 C.3       1 <0>        -0.1238
      2 C2          1.3587   -3.5327    3.2147 C.3       1 <0>        -0.0888
      3 C3          1.3517   -2.0966    2.6870 C.3       1 <0>        -0.1076
      4 C4          2.7610   -1.5634    2.6631 C.2       1 <0>         0.5154
      5 O1          3.6805   -2.2632    3.0318 O.2       1 <0>        -0.4808
      6 N1          2.9997   -0.3090    2.2320 N.am      1 <0>        -0.6849
      7 C5          4.2906    0.2249    2.3128 C.ar      1 <0>         0.1432
      8 C6          4.7348    1.1208    1.3489 C.ar      1 <0>        -0.1005
      9 C7          6.0093    1.6458    1.4315 C.ar      1 <0>        -0.1221
     10 C8          6.8433    1.2802    2.4724 C.ar      1 <0>        -0.0466
     11 C9          6.4043    0.3883    3.4333 C.ar      1 <0>        -0.6160
     12 C10         5.1281   -0.1354    3.3600 C.ar      1 <0>        -0.0175
     13 S1          7.4709   -0.0748    4.7571 S.o2      1 <0>         2.6222
     14 O2          7.0177   -1.3393    5.2205 O.2       1 <0>        -0.9653
     15 O3          8.7999    0.1379    4.3013 O.2       1 <0>        -0.9839
     16 N2          7.2158    1.0005    5.9905 N.2       1 <0>        -0.9802
     17 C11         7.8793    0.8872    7.0947 C.2       1 <0>         0.5313
     18 N3          8.8193   -0.0737    7.3569 N.pl3     1 <0>        -0.7592
     19 C12         9.6838    0.3817    8.4576 C.3       1 <0>         0.1012
     20 C13         8.7694    1.2793    9.3207 C.3       1 <0>        -0.1382
     21 C14         7.7414    1.7995    8.2936 C.3       1 <0>        -0.0944
     22 C15        -0.0506   -4.0660    3.2386 C.ar      1 <0>        -0.0301
     23 C16        -1.0979   -3.2704    2.8130 C.ar      1 <0>        -0.1334
     24 C17        -2.3907   -3.7595    2.8349 C.ar      1 <0>        -0.1244
     25 C18        -2.6361   -5.0443    3.2820 C.ar      1 <0>        -0.1429
     26 C19        -1.5886   -5.8402    3.7067 C.ar      1 <0>        -0.1213
     27 C20        -0.2954   -5.3526    3.6808 C.ar      1 <0>        -0.1072
     28 C21         1.9269   -3.5523    4.6103 C.2       1 <0>         0.5260
     29 O4          1.7900   -2.5836    5.3379 O.co2     1 <0>        -0.6969
     30 O5          2.5235   -4.5369    5.0119 O.co2     1 <0>        -0.6828
     31 H1          3.2389   -4.0219    2.2839 H         1 <0>         0.0762
     32 H2          2.2245   -5.4307    2.6772 H         1 <0>         0.0586
     33 H3          1.8086   -4.3934    1.2918 H         1 <0>         0.0275
     34 H4          0.9407   -2.0825    1.6775 H         1 <0>         0.0801
     35 H5          0.7384   -1.4734    3.3378 H         1 <0>         0.1028
     36 H6          2.2766    0.2238    1.8656 H         1 <0>         0.4083
     37 H7          4.0843    1.4061    0.5354 H         1 <0>         0.1326
     38 H8          6.3554    2.3425    0.6822 H         1 <0>         0.1342
     39 H9          7.8398    1.6919    2.5346 H         1 <0>         0.1367
     40 H10         4.7839   -0.8280    4.1138 H         1 <0>         0.1586
     41 H11        10.0400   -0.4690    9.0386 H         1 <0>         0.0914
     42 H12        10.5241    0.9567    8.0686 H         1 <0>         0.0800
     43 H13         8.2807    0.6963   10.1013 H         1 <0>         0.0891
     44 H14         9.3343    2.1064    9.7508 H         1 <0>         0.0962
     45 H15         7.9706    2.8279    8.0142 H         1 <0>         0.1136
     46 H16         6.7339    1.7343    8.7042 H         1 <0>         0.1176
     47 H17        -0.9062   -2.2666    2.4637 H         1 <0>         0.1190
     48 H18        -3.2090   -3.1377    2.5031 H         1 <0>         0.1136
     49 H19        -3.6461   -5.4262    3.2998 H         1 <0>         0.1123
     50 H20        -1.7804   -6.8439    4.0564 H         1 <0>         0.1153
     51 H21         0.5233   -5.9757    4.0091 H         1 <0>         0.1286
     52 H22         8.9024   -0.9203    6.8907 H         1 <0>         0.4177
@<TRIPOS>BOND
     1    1    2 1
     2    1   31 1
     3    1   32 1
     4    1   33 1
     5    2    3 1
     6    2   22 1
     7    2   28 1
     8    3    4 1
     9    3   34 1
    10    3   35 1
    11    4    5 2
    12    4    6 am
    13    6    7 1
    14    6   36 1
    15    7   12 ar
    16    7    8 ar
    17    8    9 ar
    18    8   37 1
    19    9   10 ar
    20    9   38 1
    21   10   11 ar
    22   10   39 1
    23   11   12 ar
    24   11   13 1
    25   12   40 1
    26   13   14 2
    27   13   15 2
    28   13   16 1
    29   16   17 2
    30   17   21 1
    31   17   18 1
    32   18   19 1
    33   18   52 1
    34   19   20 1
    35   19   41 1
    36   19   42 1
    37   20   21 1
    38   20   43 1
    39   20   44 1
    40   21   45 1
    41   21   46 1
    42   22   27 ar
    43   22   23 ar
    44   23   24 ar
    45   23   47 1
    46   24   25 ar
    47   24   48 1
    48   25   26 ar
    49   25   49 1
    50   26   27 ar
    51   26   50 1
    52   27   51 1
    53   28   29 2
    54   28   30 1
@<TRIPOS>MOLECULE
ZINC49717652
   40    41     0     0     0
SMALL
USER_CHARGES

@<TRIPOS>ATOM
      1 C1         -0.0184    1.5028    0.0103 C.3       1 <0>        -0.1155
      2 C2          0.0021   -0.0041    0.0020 C.ar      1 <0>        -0.0540
      3 C3          0.0057   -0.6887   -1.1989 C.ar      1 <0>        -0.1482
      4 C4          0.0245   -2.0709   -1.2065 C.ar      1 <0>        -0.0192
      5 C5          0.0400   -2.7685   -0.0132 C.ar      1 <0>        -0.6325
      6 C6          0.0373   -2.0839    1.1877 C.ar      1 <0>        -0.0192
      7 C7          0.0229   -0.7016    1.1953 C.ar      1 <0>        -0.1481
      8 S1          0.0628   -4.5303   -0.0229 S.o2      1 <0>         2.6748
      9 O1         -0.4759   -4.9503    1.2232 O.2       1 <0>        -1.0103
     10 O2         -0.4897   -4.9367   -1.2674 O.2       1 <0>        -1.0106
     11 N1          1.6509   -4.9994   -0.0343 N.2       1 <0>        -1.1049
     12 C8          1.9555   -6.2642   -0.0428 C.2       1 <0>         0.6846
     13 O3          0.9762   -7.1949   -0.0424 O.3       1 <0>        -0.7481
     14 N2          3.2726   -6.6533   -0.0522 N.pl3     1 <0>        -0.7252
     15 C9          3.6156   -8.0775   -0.0619 C.3       1 <0>         0.1530
     16 C10         5.1374   -8.2355   -0.0712 C.3       1 <0>        -0.0579
     17 C11         5.4902   -9.7006   -0.0811 C.2       1 <0>         0.1256
     18 C12         6.2990  -10.2269   -1.0318 C.2       1 <0>        -0.2734
     19 S2          6.3391  -11.9385   -0.5254 S.3       1 <0>         0.0602
     20 C13         5.3385  -11.8067    0.8214 C.2       1 <0>         0.3205
     21 N3          5.0288  -10.5277    0.8405 N.2       1 <0>        -0.5794
     22 N4          4.9413  -12.8023    1.7002 N.pl3     1 <0>        -0.6891
     23 C14         5.4063  -14.1781    1.5070 C.3       1 <0>         0.0934
     24 H1          1.0042    1.8801    0.0026 H         1 <0>         0.0722
     25 H2         -0.5455    1.8639   -0.8728 H         1 <0>         0.0666
     26 H3         -0.5286    1.8543    0.9071 H         1 <0>         0.0665
     27 H4         -0.0064   -0.1436   -2.1312 H         1 <0>         0.1249
     28 H5          0.0266   -2.6057   -2.1448 H         1 <0>         0.1368
     29 H6          0.0491   -2.6289    2.1200 H         1 <0>         0.1367
     30 H7          0.0245   -0.1667    2.1335 H         1 <0>         0.1249
     31 H8          3.9757   -5.9851   -0.0525 H         1 <0>         0.3920
     32 H9          3.2061   -8.5559    0.8278 H         1 <0>         0.0648
     33 H10         3.1962   -8.5462   -0.9521 H         1 <0>         0.0525
     34 H11         5.5469   -7.7572   -0.9609 H         1 <0>         0.0842
     35 H12         5.5568   -7.7668    0.8191 H         1 <0>         0.0838
     36 H13         6.7853   -9.7441   -1.8665 H         1 <0>         0.1923
     37 H14         4.3555  -12.5881    2.4431 H         1 <0>         0.4162
     38 H15         5.0766  -14.5396    0.5330 H         1 <0>         0.0607
     39 H16         6.4950  -14.2037    1.5546 H         1 <0>         0.0598
     40 H17         4.9933  -14.8144    2.2897 H         1 <0>         0.0887
@<TRIPOS>BOND
     1    1    2 1
     2    1   24 1
     3    1   25 1
     4    1   26 1
     5    2    7 ar
     6    2    3 ar
     7    3    4 ar
     8    3   27 1
     9    4    5 ar
    10    4   28 1
    11    5    6 ar
    12    5    8 1
    13    6    7 ar
    14    6   29 1
    15    7   30 1
    16    8    9 2
    17    8   10 2
    18    8   11 1
    19   11   12 2
    20   12   13 1
    21   12   14 1
    22   14   15 1
    23   14   31 1
    24   15   16 1
    25   15   32 1
    26   15   33 1
    27   16   17 1
    28   16   34 1
    29   16   35 1
    30   17   21 1
    31   17   18 2
    32   18   19 1
    33   18   36 1
    34   19   20 1
    35   20   21 2
    36   20   22 1
    37   22   23 1
    38   22   37 1
    39   23   38 1
    40   23   39 1
    41   23   40 1
@<TRIPOS>MOLECULE
ZINC63426783
   47    49     0     0     0
SMALL
USER_CHARGES

@<TRIPOS>ATOM
      1 C1          0.9521   -0.0142   -0.9164 C.3       1 <0>        -0.1171
      2 C2          0.1431   -0.3910    0.3264 C.3       1 <0>        -0.1315
      3 C3          1.0830   -0.7697    1.4418 C.2       1 <0>         0.3239
      4 C4          1.5066   -2.1637    1.6016 C.2       1 <0>        -0.4688
      5 C5          2.2495   -2.5723    2.7382 C.2       1 <0>         0.5599
      6 N1          2.6152   -3.8678    2.8384 N.am      1 <0>        -0.6915
      7 C6          2.2742   -4.7527    1.8666 C.2       1 <0>         0.6238
      8 N2          1.5854   -4.3891    0.8064 N.2       1 <0>        -0.6721
      9 C7          1.1824   -3.1300    0.6363 C.2       1 <0>         0.5096
     10 O1          0.4712   -2.7852   -0.4594 O.3       1 <0>        -0.7014
     11 O2          2.6525   -6.0401    1.9915 O.3       1 <0>        -0.7108
     12 O3          2.5517   -1.7712    3.6057 O.2       1 <0>        -0.5850
     13 N3          1.5175    0.1389    2.2613 N.2       1 <0>        -0.5806
     14 C8          1.2141    1.5512    2.0169 C.3       1 <0>         0.0892
     15 H1          0.5781    1.6390    1.1361 H         1 <0>         0.0763
     16 C9          0.4876    2.1341    3.2307 C.3       1 <0>        -0.0760
     17 C10        -0.8489    1.4562    3.3895 C.2       1 <0>         0.0885
     18 C11        -1.1363    0.4017    4.1864 C.ar      1 <0>        -0.1648
     19 C12        -0.3215   -0.3997    5.1074 C.ar      1 <0>         0.0525
     20 C13        -0.9034   -1.4172    5.7821 C.ar      1 <0>        -0.1844
     21 C14        -2.2616   -1.7252    5.6238 C.ar      1 <0>         0.0675
     22 C15        -3.0742   -1.0346    4.7963 C.ar      1 <0>        -0.2305
     23 C16        -2.5681    0.0565    4.0374 C.ar      1 <0>         0.3249
     24 N4         -3.1436    0.8661    3.1818 N.pl3     1 <0>        -0.6050
     25 C17        -2.1419    1.8213    2.6952 C.3       1 <0>         0.0644
     26 C18         2.4968    2.3082    1.7879 C.2       1 <0>         0.4543
     27 O4          3.5558    1.7277    1.8250 O.2       1 <0>        -0.4581
     28 O5          2.4629    3.6275    1.5427 O.3       1 <0>        -0.3711
     29 C19         3.7165    4.2812    1.3351 C.3       1 <0>         0.0349
     30 H2          1.6301   -0.8293   -1.1695 H         1 <0>         0.0752
     31 H3          0.2739    0.1666   -1.7504 H         1 <0>         0.0416
     32 H4          1.5286    0.8886   -0.7147 H         1 <0>         0.0213
     33 H5         -0.4644    0.4594    0.6361 H         1 <0>         0.0168
     34 H6         -0.5056   -1.2359    0.0953 H         1 <0>         0.1190
     35 H7          1.0869    1.9700    4.1262 H         1 <0>         0.1138
     36 H8          0.3373    3.2038    3.0850 H         1 <0>         0.1075
     37 H9          0.7271   -0.1803    5.2441 H         1 <0>         0.1683
     38 H10        -0.3057   -2.0082    6.4603 H         1 <0>         0.1507
     39 H11        -2.6748   -2.5490    6.1868 H         1 <0>         0.1513
     40 H12        -4.1143   -1.3124    4.7097 H         1 <0>         0.1507
     41 H13        -2.4332    2.8392    2.9546 H         1 <0>         0.1628
     42 H14        -2.0284    1.7261    1.6153 H         1 <0>         0.1644
     43 H15         4.2203    3.8367    0.4768 H         1 <0>         0.0571
     44 H16         3.5467    5.3415    1.1477 H         1 <0>         0.0955
     45 H17         4.3387    4.1642    2.2224 H         1 <0>         0.0571
     46 H18        -4.0765    0.8403    2.9176 H         1 <0>         0.4471
     47 H19         3.1240   -4.1678    3.6078 H         1 <0>         0.3792
@<TRIPOS>BOND
     1    1    2 1
     2    1   30 1
     3    1   31 1
     4    1   32 1
     5    2    3 1
     6    2   33 1
     7    2   34 1
     8    3    4 1
     9    3   13 2
    10    4    9 2
    11    4    5 1
    12    5    6 am
    13    5   12 2
    14    6    7 1
    15    6   47 1
    16    7    8 2
    17    7   11 1
    18    8    9 1
    19    9   10 1
    20   13   14 1
    21   14   15 1
    22   14   16 1
    23   14   26 1
    24   16   17 1
    25   16   35 1
    26   16   36 1
    27   17   25 1
    28   17   18 2
    29   18   23 ar
    30   18   19 ar
    31   19   20 ar
    32   19   37 1
    33   20   21 ar
    34   20   38 1
    35   21   22 ar
    36   21   39 1
    37   22   23 ar
    38   22   40 1
    39   23   24 2
    40   24   25 1
    41   24   46 1
    42   25   41 1
    43   25   42 1
    44   26   27 2
    45   26   28 1
    46   28   29 1
    47   29   43 1
    48   29   44 1
    49   29   45 1
@<TRIPOS>MOLECULE
ZINC09144728
   49    50     0     0     0
SMALL
USER_CHARGES
(3-carbamoyl-2-thienyl)carbamoylmethyl 2-(2-fluorobenzoyl)amino-3-methyl-butanoate
@<TRIPOS>ATOM
      1 C1         -4.3262   -3.7979   -1.4158 C.3       1 <0>        -0.1573
      2 C2         -3.0140   -3.0112   -1.4236 C.3       1 <0>        -0.0998
      3 C3         -3.2544   -1.6244   -2.0236 C.3       1 <0>        -0.1386
      4 C4         -2.4988   -2.8645    0.0096 C.3       1 <0>         0.1633
      5 H1         -3.2379   -2.3325    0.6087 H         1 <0>         0.1337
      6 C5         -2.2620   -4.2304    0.6005 C.2       1 <0>         0.4676
      7 O1         -1.1571   -4.5425    0.9769 O.2       1 <0>        -0.4968
      8 O2         -3.2786   -5.1002    0.7089 O.3       1 <0>        -0.3160
      9 C6         -2.9774   -6.3974    1.2876 C.3       1 <0>         0.0499
     10 C7         -4.2311   -7.2327    1.3279 C.2       1 <0>         0.5081
     11 O3         -5.2755   -6.7795    0.9101 O.2       1 <0>        -0.4719
     12 N1         -4.1916   -8.4835    1.8284 N.am      1 <0>        -0.6073
     13 C8         -5.3451   -9.2521    1.8655 C.2       1 <0>         0.1161
     14 C9         -5.5021  -10.5513    2.3336 C.2       1 <0>        -0.2595
     15 C10        -6.8293  -11.1136    2.2554 C.2       1 <0>        -0.1076
     16 C11        -7.7946  -10.3386    1.7289 C.2       1 <0>        -0.2343
     17 S1         -6.9374   -8.8288    1.3329 S.3       1 <0>         0.2347
     18 C12        -4.3757  -11.3122    2.8833 C.2       1 <0>         0.5906
     19 O4         -3.2695  -10.8077    2.9379 O.2       1 <0>        -0.5645
     20 N2         -4.5654  -12.5703    3.3280 N.am      1 <0>        -0.8472
     21 N3         -1.2424   -2.1111    0.0021 N.am      1 <0>        -0.7149
     22 C13        -1.2646   -0.7635    0.0095 C.2       1 <0>         0.5668
     23 O5         -2.3272   -0.1732    0.0225 O.2       1 <0>        -0.5092
     24 C14         0.0021   -0.0041    0.0020 C.ar      1 <0>        -0.1775
     25 C15         1.2248   -0.6787   -0.0133 C.ar      1 <0>        -0.0564
     26 C16         2.4035    0.0361   -0.0207 C.ar      1 <0>        -0.1383
     27 C17         2.3790    1.4205   -0.0135 C.ar      1 <0>        -0.0593
     28 C18         1.1742    2.0973    0.0021 C.ar      1 <0>        -0.1647
     29 C19        -0.0169    1.3940    0.0097 C.ar      1 <0>         0.1632
     30 F1         -1.1947    2.0558    0.0189 F         1 <0>        -0.1127
     31 H2         -5.0653   -3.2660   -0.8167 H         1 <0>         0.0636
     32 H3         -4.6933   -3.9025   -2.4368 H         1 <0>         0.0632
     33 H4         -4.1550   -4.7859   -0.9883 H         1 <0>         0.0784
     34 H5         -2.2750   -3.5431   -2.0227 H         1 <0>         0.0769
     35 H6         -2.3196   -1.0639   -2.0292 H         1 <0>         0.0533
     36 H7         -3.6215   -1.7289   -3.0446 H         1 <0>         0.0573
     37 H8         -3.9935   -1.0924   -1.4245 H         1 <0>         0.0699
     38 H9         -2.2250   -6.9004    0.6802 H         1 <0>         0.1154
     39 H10        -2.5970   -6.2639    2.3003 H         1 <0>         0.1151
     40 H11        -3.3562   -8.8460    2.1626 H         1 <0>         0.4361
     41 H12        -7.0376  -12.1154    2.6008 H         1 <0>         0.1415
     42 H13        -8.8381  -10.5751    1.5818 H         1 <0>         0.1914
     43 H14        -5.4470  -12.9723    3.2845 H         1 <0>         0.4024
     44 H15        -3.8202  -13.0736    3.6917 H         1 <0>         0.4056
     45 H16        -0.3945   -2.5822   -0.0082 H         1 <0>         0.4093
     46 H17         1.2469   -1.7585   -0.0196 H         1 <0>         0.1363
     47 H18         3.3492   -0.4854   -0.0325 H         1 <0>         0.1385
     48 H19         3.3062    1.9742   -0.0201 H         1 <0>         0.1404
     49 H20         1.1626    3.1772    0.0077 H         1 <0>         0.1451
@<TRIPOS>BOND
     1    1    2 1
     2    1   31 1
     3    1   32 1
     4    1   33 1
     5    2    3 1
     6    2    4 1
     7    2   34 1
     8    3   35 1
     9    3   36 1
    10    3   37 1
    11    4    5 1
    12    4    6 1
    13    4   21 1
    14    6    7 2
    15    6    8 1
    16    8    9 1
    17    9   10 1
    18    9   38 1
    19    9   39 1
    20   10   11 2
    21   10   12 am
    22   12   13 1
    23   12   40 1
    24   13   17 1
    25   13   14 2
    26   14   15 1
    27   14   18 1
    28   15   16 2
    29   15   41 1
    30   16   17 1
    31   16   42 1
    32   18   19 2
    33   18   20 am
    34   20   43 1
    35   20   44 1
    36   21   22 am
    37   21   45 1
    38   22   23 2
    39   22   24 1
    40   24   29 ar
    41   24   25 ar
    42   25   26 ar
    43   25   46 1
    44   26   27 ar
    45   26   47 1
    46   27   28 ar
    47   27   48 1
    48   28   29 ar
    49   28   49 1
    50   29   30 1
@<TRIPOS>MOLECULE
ZINC13486977
   54    55     0     0     0
SMALL
USER_CHARGES
2-[2-[[[2-[3-amino-6-methyl-2-oxo-4-(trifluoromethyl)-1-pyridyl]acetyl]amino]methyl]-4-chloro-phenoxy]-N-ethyl-acetamide
@<TRIPOS>ATOM
      1 C1          2.5223   -2.5316   -8.9549 C.3       1 <0>        -0.1670
      2 C2          1.7418   -2.1597   -7.6926 C.3       1 <0>         0.1153
      3 N1          2.6706   -1.6716   -6.6702 N.am      1 <0>        -0.7281
      4 C3          2.2047   -1.2836   -5.4665 C.2       1 <0>         0.5137
      5 O1          1.0165   -1.3386   -5.2297 O.2       1 <0>        -0.5097
      6 C4          3.1602   -0.7816   -4.4148 C.3       1 <0>         0.0372
      7 O2          2.4312   -0.4342   -3.2358 O.3       1 <0>        -0.2789
      8 C5          3.1492    0.0396   -2.1835 C.ar      1 <0>         0.1508
      9 C6          4.5271    0.1670   -2.2839 C.ar      1 <0>        -0.1999
     10 C7          5.2551    0.6483   -1.2134 C.ar      1 <0>        -0.0574
     11 C8          4.6110    1.0038   -0.0413 C.ar      1 <0>        -0.0725
     12 C9          3.2366    0.8820    0.0591 C.ar      1 <0>        -0.0491
     13 C10         2.5055    0.3960   -1.0078 C.ar      1 <0>        -0.1272
     14 C11         1.0088    0.2591   -0.8963 C.3       1 <0>         0.1737
     15 N2          0.6657   -1.1377   -0.6176 N.am      1 <0>        -0.7169
     16 C12        -0.6250   -1.4992   -0.4763 C.2       1 <0>         0.5043
     17 O3         -1.5023   -0.6682   -0.5799 O.2       1 <0>        -0.5188
     18 C13        -0.9780   -2.9359   -0.1896 C.3       1 <0>         0.0729
     19 N3         -2.4329   -3.0690   -0.0812 N.am      1 <0>        -0.4628
     20 C14        -3.1615   -3.3999   -1.1812 C.2       1 <0>         0.1118
     21 C15        -4.5049   -3.5348   -1.1075 C.2       1 <0>        -0.1487
     22 C16        -5.1661   -3.3217    0.1110 C.2       1 <0>        -0.2140
     23 C17        -4.4362   -2.9835    1.2171 C.2       1 <0>         0.1754
     24 C18        -3.0341   -2.8570    1.1050 C.2       1 <0>         0.5273
     25 O4         -2.3677   -2.5561    2.0826 O.2       1 <0>        -0.5317
     26 N4         -5.0716   -2.7647    2.4458 N.pl3     1 <0>        -0.8384
     27 C19        -6.6638   -3.4635    0.2002 C.3       1 <0>         0.5168
     28 F1         -7.2500   -2.1943    0.2537 F         1 <0>        -0.1763
     29 F2         -7.1354   -4.1479   -0.9251 F         1 <0>        -0.1712
     30 F3         -6.9964   -4.1798    1.3550 F         1 <0>        -0.1778
     31 C20        -2.4620   -3.6253   -2.4969 C.3       1 <0>        -0.1175
     32 Cl1         5.5281    1.6084    1.3029 Cl        1 <0>        -0.0614
     33 H1          3.0465   -1.6526   -9.3301 H         1 <0>         0.0632
     34 H2          3.2452   -3.3123   -8.7183 H         1 <0>         0.0631
     35 H3          1.8312   -2.8947   -9.7156 H         1 <0>         0.0779
     36 H4          1.2176   -3.0386   -7.3174 H         1 <0>         0.0708
     37 H5          1.0189   -1.3789   -7.9292 H         1 <0>         0.0709
     38 H6          3.6209   -1.6277   -6.8596 H         1 <0>         0.4024
     39 H7          3.6844    0.0973   -4.7900 H         1 <0>         0.0967
     40 H8          3.8830   -1.5623   -4.1782 H         1 <0>         0.0969
     41 H9          5.0301   -0.1096   -3.1987 H         1 <0>         0.1405
     42 H10         6.3278    0.7476   -1.2911 H         1 <0>         0.1405
     43 H11         2.7352    1.1634    0.9733 H         1 <0>         0.1452
     44 H12         0.5450    0.5672   -1.8333 H         1 <0>         0.0874
     45 H13         0.6455    0.8911   -0.0859 H         1 <0>         0.0802
     46 H14         1.3673   -1.8022   -0.5348 H         1 <0>         0.4018
     47 H15        -0.6147   -3.5680   -1.0000 H         1 <0>         0.1285
     48 H16        -0.5142   -3.2440    0.7474 H         1 <0>         0.1301
     49 H17        -5.0695   -3.8027   -1.9883 H         1 <0>         0.1550
     50 H18        -6.0402   -2.7476    2.4946 H         1 <0>         0.4073
     51 H19        -4.5431   -2.6304    3.2479 H         1 <0>         0.4136
     52 H20        -2.1645   -4.6709   -2.5758 H         1 <0>         0.0863
     53 H21        -3.1382   -3.3772   -3.3150 H         1 <0>         0.0928
     54 H22        -1.5775   -2.9907   -2.5515 H         1 <0>         0.0747
@<TRIPOS>BOND
     1    1    2 1
     2    1   33 1
     3    1   34 1
     4    1   35 1
     5    2    3 1
     6    2   36 1
     7    2   37 1
     8    3    4 am
     9    3   38 1
    10    4    5 2
    11    4    6 1
    12    6    7 1
    13    6   39 1
    14    6   40 1
    15    7    8 1
    16    8   13 ar
    17    8    9 ar
    18    9   10 ar
    19    9   41 1
    20   10   11 ar
    21   10   42 1
    22   11   12 ar
    23   11   32 1
    24   12   13 ar
    25   12   43 1
    26   13   14 1
    27   14   15 1
    28   14   44 1
    29   14   45 1
    30   15   16 am
    31   15   46 1
    32   16   17 2
    33   16   18 1
    34   18   19 1
    35   18   47 1
    36   18   48 1
    37   19   24 am
    38   19   20 1
    39   20   21 2
    40   20   31 1
    41   21   22 1
    42   21   49 1
    43   22   23 2
    44   22   27 1
    45   23   24 1
    46   23   26 1
    47   24   25 2
    48   26   50 1
    49   26   51 1
    50   27   28 1
    51   27   29 1
    52   27   30 1
    53   31   52 1
    54   31   53 1
    55   31   54 1
@<TRIPOS>MOLECULE
ZINC20835128
   38    39     0     0     0
SMALL
USER_CHARGES
N'-[2-[[5-[(N'E)-N'-[(3-chlorophenyl)methylene]hydrazino]-4H-1,2,4-triazol-3-yl]sulfanyl]acetyl]-2,2,2-trifluoro-acetohydrazide
@<TRIPOS>ATOM
      1 C1         -0.0126    1.0758    0.0080 C.ar      1 <0>        -0.1072
      2 C2          1.1737    1.7800    0.0004 C.ar      1 <0>        -0.0827
      3 C3          1.1535    3.1768    0.0081 C.ar      1 <0>        -0.0433
      4 C4         -0.0700    3.8513    0.0234 C.ar      1 <0>        -0.0757
      5 C5         -1.2492    3.1341    0.0308 C.ar      1 <0>        -0.0397
      6 C6         -1.2209    1.7493    0.0174 C.ar      1 <0>        -0.0927
      7 Cl1        -2.7710    3.9693    0.0493 Cl        1 <0>        -0.0616
      8 C7          2.4175    3.9357   -0.0004 C.2       1 <0>         0.1208
      9 N1          2.3953    5.2341    0.0068 N.2       1 <0>        -0.2470
     10 N2          3.5964    5.9553   -0.0012 N.pl3     1 <0>        -0.5566
     11 C8          3.5727    7.3426    0.0064 C.2       1 <0>         0.5412
     12 N3          4.6649    8.1650   -0.0000 N.2       1 <0>        -0.5491
     13 C9          4.2209    9.4567    0.0105 C.2       1 <0>         0.2077
     14 N4          2.9094    9.4345    0.0229 N.2       1 <0>        -0.3259
     15 N5          2.4991    8.0949    0.0154 N.pl3     1 <0>        -0.4743
     16 S1          5.2322   10.8996    0.0079 S.3       1 <0>         0.1260
     17 C10         4.0429   12.2691    0.0259 C.3       1 <0>        -0.1581
     18 C11         4.7863   13.5800    0.0251 C.2       1 <0>         0.5447
     19 O1          5.9990   13.5894    0.0136 O.2       1 <0>        -0.5166
     20 N6          4.1034   14.7420    0.0373 N.am      1 <0>        -0.5246
     21 N7          4.7945   15.9606    0.0366 N.am      1 <0>        -0.5014
     22 C12         4.1117   17.1226    0.0488 C.2       1 <0>         0.4820
     23 O2          2.8990   17.1132    0.0603 O.2       1 <0>        -0.4826
     24 C13         4.8551   18.4334    0.0480 C.3       1 <0>         0.4692
     25 F1          3.9379   19.4897    0.0619 F         1 <0>        -0.1448
     26 F2          5.6697   18.5082    1.1830 F         1 <0>        -0.1618
     27 F3          5.6479   18.5193   -1.1015 F         1 <0>        -0.1617
     28 H1          0.0021   -0.0041    0.0020 H         1 <0>         0.1406
     29 H2          2.1160    1.2524   -0.0111 H         1 <0>         0.1384
     30 H3         -0.0929    4.9311    0.0298 H         1 <0>         0.1404
     31 H4         -2.1464    1.1927    0.0184 H         1 <0>         0.1382
     32 H5          3.3793    3.4021   -0.0128 H         1 <0>         0.1371
     33 H6          4.5582    5.4217   -0.0135 H         1 <0>         0.4403
     34 H7          3.4024   12.2102   -0.8665 H         1 <0>         0.1327
     35 H8          3.4196   12.2016    0.9297 H         1 <0>         0.1327
     36 H9          3.0035   14.7335    0.0478 H         1 <0>         0.4673
     37 H10         5.8944   15.9691    0.0261 H         1 <0>         0.4732
     38 H11         1.5020    7.6304    0.0159 H         1 <0>         0.4750
@<TRIPOS>BOND
     1    1    6 ar
     2    1    2 ar
     3    1   28 1
     4    2    3 ar
     5    2   29 1
     6    3    4 ar
     7    3    8 1
     8    4    5 ar
     9    4   30 1
    10    5    6 ar
    11    5    7 1
    12    6   31 1
    13    8    9 2
    14    8   32 1
    15    9   10 1
    16   10   11 1
    17   10   33 1
    18   11   15 1
    19   11   12 2
    20   12   13 1
    21   13   14 2
    22   13   16 1
    23   14   15 1
    24   15   38 1
    25   16   17 1
    26   17   18 1
    27   17   34 1
    28   17   35 1
    29   18   19 2
    30   18   20 am
    31   20   21 1
    32   20   36 1
    33   21   22 am
    34   21   37 1
    35   22   23 2
    36   22   24 1
    37   24   25 1
    38   24   26 1
    39   24   27 1
@<TRIPOS>MOLECULE
ZINC36532126
   55    56     0     0     0
SMALL
USER_CHARGES

@<TRIPOS>ATOM
      1 C1          5.1833    2.2191    0.1910 C.3       1 <0>        -0.1268
      2 C2          4.5021    0.9048   -0.0912 C.ar      1 <0>        -0.0286
      3 C3          4.6626    0.2930   -1.3203 C.ar      1 <0>        -0.1412
      4 C4          4.0378   -0.9126   -1.5792 C.ar      1 <0>        -0.0221
      5 C5          3.2529   -1.5067   -0.6087 C.ar      1 <0>        -0.6663
      6 C6          3.0931   -0.8953    0.6208 C.ar      1 <0>        -0.0143
      7 C7          3.7214    0.3082    0.8811 C.ar      1 <0>        -0.1431
      8 S1          2.4555   -3.0428   -0.9390 S.o2      1 <0>         2.4680
      9 O1          1.3867   -3.1048   -0.0046 O.2       1 <0>        -0.8936
     10 O2          2.1963   -3.0238   -2.3360 O.2       1 <0>        -0.9375
     11 C8          3.6984   -4.3060   -0.5512 C.3       1 <0>        -0.3566
     12 N1          3.9558   -4.3114    0.8910 N.am      1 <0>        -0.7036
     13 C9          3.3195   -5.1945    1.6858 C.2       1 <0>         0.5289
     14 O3          2.4887   -5.9433    1.2169 O.2       1 <0>        -0.5001
     15 C10         3.6404   -5.2514    3.1571 C.3       1 <0>         0.1857
     16 H1          4.7031   -5.0592    3.3049 H         1 <0>         0.1305
     17 C11         2.8349   -4.2081    3.8877 C.ar      1 <0>        -0.1799
     18 C12         3.3513   -3.6033    5.0238 C.ar      1 <0>         0.1683
     19 C13         2.6101   -2.6433    5.6960 C.ar      1 <0>        -0.1906
     20 C14         1.3526   -2.2876    5.2320 C.ar      1 <0>         0.1555
     21 C15         0.8366   -2.8917    4.0954 C.ar      1 <0>        -0.1858
     22 C16         1.5796   -3.8487    3.4206 C.ar      1 <0>         0.1660
     23 O4          1.0758   -4.4372    2.3042 O.3       1 <0>        -0.4551
     24 O5          0.6259   -1.3474    5.8913 O.3       1 <0>        -0.4938
     25 O6          4.5836   -3.9519    5.4785 O.3       1 <0>        -0.4828
     26 N2          3.3071   -6.5792    3.6786 N.am      1 <0>        -0.5909
     27 C17         1.9272   -7.0669    3.6129 C.3       1 <0>         0.0803
     28 C18         4.2699   -7.3522    4.2189 C.2       1 <0>         0.5278
     29 O7          5.4123   -6.9486    4.2733 O.2       1 <0>        -0.5312
     30 C19         3.9271   -8.7182    4.7553 C.3       1 <0>        -0.1219
     31 C20         5.1905   -9.3809    5.3080 C.3       1 <0>        -0.0520
     32 S2          4.7778  -11.0251    5.9537 S.3       1 <0>        -0.2500
     33 H2          6.1714    2.0333    0.6120 H         1 <0>         0.0799
     34 H3          5.2838    2.7828   -0.7366 H         1 <0>         0.0737
     35 H4          4.5874    2.7920    0.9015 H         1 <0>         0.0731
     36 H5          5.2759    0.7571   -2.0786 H         1 <0>         0.1331
     37 H6          4.1627   -1.3903   -2.5397 H         1 <0>         0.1395
     38 H7          2.4796   -1.3593    1.3789 H         1 <0>         0.1408
     39 H8          3.5996    0.7840    1.8430 H         1 <0>         0.1309
     40 H9          3.3297   -5.2848   -0.8581 H         1 <0>         0.1543
     41 H10         4.6224   -4.0823   -1.0844 H         1 <0>         0.1394
     42 H11         4.5841   -3.6793    1.2738 H         1 <0>         0.4096
     43 H12         3.0120   -2.1728    6.5812 H         1 <0>         0.1407
     44 H13        -0.1429   -2.6150    3.7342 H         1 <0>         0.1432
     45 H14         0.4906   -5.1857    2.4841 H         1 <0>         0.3913
     46 H15         0.7787   -0.4440    5.5821 H         1 <0>         0.3976
     47 H16         5.2948   -3.3741    5.1696 H         1 <0>         0.3951
     48 H17         1.7979   -7.6716    2.7152 H         1 <0>         0.0768
     49 H18         1.7137   -7.6731    4.4932 H         1 <0>         0.0725
     50 H19         1.2433   -6.2187    3.5812 H         1 <0>         0.0658
     51 H20         3.1895   -8.6210    5.5519 H         1 <0>         0.1090
     52 H21         3.5166   -9.3311    3.9529 H         1 <0>         0.1093
     53 H22         5.9281   -9.4780    4.5114 H         1 <0>         0.0917
     54 H23         5.6009   -8.7679    6.1105 H         1 <0>         0.0929
     55 H24         5.9517  -11.5013    6.4054 H         1 <0>         0.0969
@<TRIPOS>BOND
     1    1    2 1
     2    1   33 1
     3    1   34 1
     4    1   35 1
     5    2    7 ar
     6    2    3 ar
     7    3    4 ar
     8    3   36 1
     9    4    5 ar
    10    4   37 1
    11    5    6 ar
    12    5    8 1
    13    6    7 ar
    14    6   38 1
    15    7   39 1
    16    8    9 2
    17    8   10 2
    18    8   11 1
    19   11   12 1
    20   11   40 1
    21   11   41 1
    22   12   13 am
    23   12   42 1
    24   13   14 2
    25   13   15 1
    26   15   16 1
    27   15   17 1
    28   15   26 1
    29   17   22 ar
    30   17   18 ar
    31   18   19 ar
    32   18   25 1
    33   19   20 ar
    34   19   43 1
    35   20   21 ar
    36   20   24 1
    37   21   22 ar
    38   21   44 1
    39   22   23 1
    40   23   45 1
    41   24   46 1
    42   25   47 1
    43   26   27 1
    44   26   28 am
    45   27   48 1
    46   27   49 1
    47   27   50 1
    48   28   29 2
    49   28   30 1
    50   30   31 1
    51   30   51 1
    52   30   52 1
    53   31   32 1
    54   31   53 1
    55   31   54 1
    56   32   55 1
@<TRIPOS>MOLECULE
ZINC46919901
   49    51     0     0     0
SMALL
USER_CHARGES

@<TRIPOS>ATOM
      1 C1         -0.0164    1.3570    0.0095 C.ar      1 <0>        -0.1090
      2 C2          1.1559    2.1003    0.0023 C.ar      1 <0>        -0.0920
      3 C3          2.3751    1.4492   -0.0129 C.ar      1 <0>        -0.0650
      4 C4          2.4044    0.0758   -0.0205 C.ar      1 <0>        -0.1650
      5 C5          1.2262   -0.7047   -0.0135 C.ar      1 <0>         0.0793
      6 C6          0.0021   -0.0041    0.0020 C.ar      1 <0>        -0.0560
      7 N1          1.4635   -2.0326   -0.0233 N.2       1 <0>        -0.4953
      8 C7          2.6693   -2.5212   -0.0378 C.2       1 <0>         0.1070
      9 S1          3.6694   -1.1675   -0.0399 S.3       1 <0>         0.1120
     10 C8          3.0782   -3.9717   -0.0496 C.3       1 <0>        -0.0293
     11 S2          3.2253   -4.5445   -1.7644 S.3       1 <0>        -0.1391
     12 C9          3.7169   -6.2834   -1.6056 C.3       1 <0>        -0.1359
     13 C10         3.8758   -6.8878   -2.9769 C.2       1 <0>         0.5329
     14 O1          3.6770   -6.2120   -3.9642 O.2       1 <0>        -0.5122
     15 N2          4.2389   -8.1793   -3.1062 N.am      1 <0>        -0.7232
     16 C11         4.3934   -8.7668   -4.4393 C.3       1 <0>         0.1589
     17 C12         4.8017  -10.2114   -4.3073 C.ar      1 <0>        -0.0840
     18 C13         6.1432  -10.5455   -4.2510 C.ar      1 <0>        -0.1065
     19 C14         6.5238  -11.8660   -4.1302 C.ar      1 <0>        -0.0579
     20 C15         5.5522  -12.8659   -4.0648 C.ar      1 <0>        -0.1266
     21 C16         4.2007  -12.5221   -4.1222 C.ar      1 <0>        -0.0849
     22 C17         3.8335  -11.1973   -4.2373 C.ar      1 <0>        -0.1057
     23 C18         5.9529  -14.2832   -3.9358 C.2       1 <0>         0.5622
     24 O2          7.1307  -14.5798   -3.8865 O.2       1 <0>        -0.5326
     25 N3          5.0123  -15.2464   -3.8729 N.am      1 <0>        -0.7163
     26 C19         5.4093  -16.6508   -3.7451 C.3       1 <0>         0.0974
     27 C20         4.1781  -17.5184   -3.6963 C.2       1 <0>         0.5142
     28 O3          3.0774  -17.0134   -3.7618 O.2       1 <0>        -0.5398
     29 N4          4.3002  -18.8556   -3.5798 N.am      1 <0>        -0.8469
     30 H1         -0.9661    1.8710    0.0259 H         1 <0>         0.1366
     31 H2          1.1157    3.1795    0.0081 H         1 <0>         0.1407
     32 H3          3.2953    2.0145   -0.0190 H         1 <0>         0.1364
     33 H4         -0.9285   -0.5522    0.0083 H         1 <0>         0.1346
     34 H5          4.0384   -4.0826    0.4542 H         1 <0>         0.1128
     35 H6          2.3252   -4.5656    0.4686 H         1 <0>         0.1180
     36 H7          4.6637   -6.3458   -1.0691 H         1 <0>         0.1159
     37 H8          2.9506   -6.8288   -1.0548 H         1 <0>         0.1160
     38 H9          4.3979   -8.7198   -2.3166 H         1 <0>         0.4043
     39 H10         3.4466   -8.7045   -4.9758 H         1 <0>         0.0831
     40 H11         5.1597   -8.2215   -4.9901 H         1 <0>         0.0835
     41 H12         6.8940   -9.7709   -4.3020 H         1 <0>         0.1346
     42 H13         7.5713  -12.1256   -4.0867 H         1 <0>         0.1408
     43 H14         3.4440  -13.2911   -4.0721 H         1 <0>         0.1313
     44 H15         2.7880  -10.9294   -4.2774 H         1 <0>         0.1338
     45 H16         4.0724  -15.0098   -3.9123 H         1 <0>         0.4126
     46 H17         6.0203  -16.9350   -4.6018 H         1 <0>         0.1046
     47 H18         5.9841  -16.7839   -2.8286 H         1 <0>         0.1045
     48 H19         5.1805  -19.2595   -3.5274 H         1 <0>         0.4068
     49 H20         3.5077  -19.4140   -3.5484 H         1 <0>         0.4087
@<TRIPOS>BOND
     1    1    6 ar
     2    1    2 ar
     3    1   30 1
     4    2    3 ar
     5    2   31 1
     6    3    4 ar
     7    3   32 1
     8    4    9 1
     9    4    5 ar
    10    5    6 ar
    11    5    7 1
    12    6   33 1
    13    7    8 2
    14    8    9 1
    15    8   10 1
    16   10   11 1
    17   10   34 1
    18   10   35 1
    19   11   12 1
    20   12   13 1
    21   12   36 1
    22   12   37 1
    23   13   14 2
    24   13   15 am
    25   15   16 1
    26   15   38 1
    27   16   17 1
    28   16   39 1
    29   16   40 1
    30   17   22 ar
    31   17   18 ar
    32   18   19 ar
    33   18   41 1
    34   19   20 ar
    35   19   42 1
    36   20   21 ar
    37   20   23 1
    38   21   22 ar
    39   21   43 1
    40   22   44 1
    41   23   24 2
    42   23   25 am
    43   25   26 1
    44   25   45 1
    45   26   27 1
    46   26   46 1
    47   26   47 1
    48   27   28 2
    49   27   29 am
    50   29   48 1
    51   29   49 1
@<TRIPOS>MOLECULE
ZINC11867571
   50    53     0     0     0
SMALL
USER_CHARGES
(2R)-2-[[2-(7-hydroxy-4-methyl-2-oxo-chromen-3-yl)acetyl]amino]-3-(1H-indol-3-yl)propanoic acid
@<TRIPOS>ATOM
      1 C1          0.6946    3.6235   -1.1753 C.3       1 <0>        -0.1247
      2 C2         -0.4054    2.7795   -1.7658 C.2       1 <0>         0.0237
      3 C3         -1.1407    3.2244   -2.9514 C.ar      1 <0>        -0.1475
      4 C4         -0.8424    4.4448   -3.5685 C.ar      1 <0>        -0.0422
      5 C5         -1.5433    4.8359   -4.6721 C.ar      1 <0>        -0.1674
      6 C6         -2.5539    4.0275   -5.1895 C.ar      1 <0>         0.1562
      7 C7         -2.8621    2.8165   -4.5917 C.ar      1 <0>        -0.1633
      8 C8         -2.1600    2.4039   -3.4692 C.ar      1 <0>         0.1647
      9 O1         -2.4438    1.2267   -2.8718 O.3       1 <0>        -0.2706
     10 C9         -1.7703    0.8109   -1.7878 C.2       1 <0>         0.5168
     11 O2         -2.0581   -0.2606   -1.2853 O.2       1 <0>        -0.4413
     12 C10        -0.7416    1.5850   -1.2129 C.2       1 <0>        -0.1805
     13 C11        -0.0127    1.0858    0.0080 C.3       1 <0>        -0.0870
     14 C12        -0.7181    1.5718    1.2479 C.2       1 <0>         0.5217
     15 O3         -1.7145    2.2562    1.1498 O.2       1 <0>        -0.5398
     16 N1         -0.2416    1.2460    2.4658 N.am      1 <0>        -0.6946
     17 C13        -0.9273    1.7184    3.6711 C.3       1 <0>         0.1129
     18 H1         -1.3348    2.7132    3.4910 H         1 <0>         0.0877
     19 C14         0.0662    1.7770    4.8332 C.3       1 <0>        -0.0404
     20 C15         1.1199    2.8141    4.5415 C.2       1 <0>        -0.1423
     21 C16         2.3239    2.5959    3.9898 C.2       1 <0>         0.0356
     22 N2          3.0073    3.7762    3.8790 N.pl3     1 <0>        -0.5986
     23 H2          3.8996    3.8710    3.5105 H         1 <0>         0.4110
     24 C17         2.2401    4.8091    4.3694 C.ar      1 <0>         0.0964
     25 C18         1.0218    4.2526    4.8005 C.ar      1 <0>        -0.0995
     26 C19         0.0345    5.0754    5.3454 C.ar      1 <0>        -0.0595
     27 C20         0.2556    6.4196    5.4543 C.ar      1 <0>        -0.1540
     28 C21         1.4543    6.9738    5.0274 C.ar      1 <0>        -0.1002
     29 C22         2.4453    6.1791    4.4934 C.ar      1 <0>        -0.1399
     30 C23        -2.0478    0.7714    4.0154 C.2       1 <0>         0.4560
     31 O4         -2.2526   -0.1987    3.3248 O.co2     1 <0>        -0.6245
     32 O5         -3.2422    4.4304   -6.2879 O.3       1 <0>        -0.4933
     33 H3          1.6454    3.3551   -1.6357 H         1 <0>         0.0877
     34 H4          0.4848    4.6766   -1.3624 H         1 <0>         0.0798
     35 H5          0.7492    3.4493   -0.1007 H         1 <0>         0.0833
     36 H6         -0.0601    5.0752   -3.1722 H         1 <0>         0.1433
     37 H7         -1.3135    5.7779   -5.1477 H         1 <0>         0.1393
     38 H8         -3.6463    2.1955   -4.9988 H         1 <0>         0.1490
     39 H9          0.0021   -0.0041    0.0020 H         1 <0>         0.1125
     40 H10         1.0099    1.4631    0.0003 H         1 <0>         0.1030
     41 H11         0.5554    0.6986    2.5442 H         1 <0>         0.3887
     42 H12        -0.4615    2.0427    5.7492 H         1 <0>         0.0951
     43 H13         0.5394    0.8028    4.9560 H         1 <0>         0.0691
     44 H14         2.6981    1.6314    3.6795 H         1 <0>         0.1659
     45 H15        -0.9008    4.6512    5.6794 H         1 <0>         0.1269
     46 H16        -0.5084    7.0557    5.8762 H         1 <0>         0.1197
     47 H17         1.6142    8.0379    5.1200 H         1 <0>         0.1198
     48 H18         3.3739    6.6201    4.1625 H         1 <0>         0.1139
     49 H19        -4.0310    4.9529   -6.0881 H         1 <0>         0.3985
     50 O6         -2.8184    1.0055    5.0892 O.co2     1 <0>        -0.7674
@<TRIPOS>BOND
     1    1    2 1
     2    1   33 1
     3    1   34 1
     4    1   35 1
     5    2   12 2
     6    2    3 1
     7    3    8 ar
     8    3    4 ar
     9    4    5 ar
    10    4   36 1
    11    5    6 ar
    12    5   37 1
    13    6    7 ar
    14    6   32 1
    15    7    8 ar
    16    7   38 1
    17    8    9 1
    18    9   10 1
    19   10   11 2
    20   10   12 1
    21   12   13 1
    22   13   14 1
    23   13   39 1
    24   13   40 1
    25   14   15 2
    26   14   16 am
    27   16   17 1
    28   16   41 1
    29   17   18 1
    30   17   19 1
    31   17   30 1
    32   19   20 1
    33   19   42 1
    34   19   43 1
    35   20   25 1
    36   20   21 2
    37   21   22 1
    38   21   44 1
    39   22   23 1
    40   22   24 1
    41   24   29 ar
    42   24   25 ar
    43   25   26 ar
    44   26   27 ar
    45   26   45 1
    46   27   28 ar
    47   27   46 1
    48   28   29 ar
    49   28   47 1
    50   29   48 1
    51   30   31 2
    52   30   50 1
    53   32   49 1
@<TRIPOS>MOLECULE
ZINC21785025
   45    47     0     0     0
SMALL
USER_CHARGES

@<TRIPOS>ATOM
      1 C1         -0.0173    1.4248    0.0099 C.3       1 <0>         0.0242
      2 O1          0.0021   -0.0041    0.0020 O.3       1 <0>        -0.3017
      3 C2          0.6062   -0.6075   -1.0564 C.ar      1 <0>         0.1105
      4 C3          1.1729    0.1590   -2.0621 C.ar      1 <0>        -0.1537
      5 C4          1.7870   -0.4560   -3.1371 C.ar      1 <0>        -0.0731
      6 C5          1.8372   -1.8356   -3.2121 C.ar      1 <0>        -0.1196
      7 C6          1.2734   -2.6062   -2.2124 C.ar      1 <0>        -0.1687
      8 C7          0.6617   -1.9961   -1.1290 C.ar      1 <0>         0.0985
      9 O2          0.1119   -2.7526   -0.1417 O.3       1 <0>        -0.2774
     10 C8          0.2064   -4.1715   -0.2827 C.3       1 <0>         0.0376
     11 C9         -0.4529   -4.8385    0.8968 C.2       1 <0>         0.5191
     12 O3         -0.9544   -4.1652    1.7721 O.2       1 <0>        -0.5130
     13 N1         -0.4854   -6.1834    0.9791 N.am      1 <0>        -0.8511
     14 C10         2.4028    0.3792   -4.2300 C.3       1 <0>         0.0315
     15 H1          2.2662    1.4359   -4.0005 H         1 <0>         0.1141
     16 C11         1.7254    0.0550   -5.5628 C.3       1 <0>        -0.1353
     17 C12         2.1545   -1.3084   -6.0344 C.2       1 <0>         0.5350
     18 O4          1.3661   -2.0110   -6.6303 O.2       1 <0>        -0.4989
     19 N2          3.4013   -1.7578   -5.8032 N.am      1 <0>        -0.6474
     20 C13         4.3140   -0.9817   -5.1088 C.2       1 <0>         0.4368
     21 C14         3.8725    0.0729   -4.3277 C.2       1 <0>        -0.3061
     22 C15         4.8086    0.8453   -3.6344 C.2       1 <0>         0.5527
     23 O5          4.4502    1.7813   -2.9373 O.2       1 <0>        -0.5218
     24 N3          6.1177    0.5346   -3.7512 N.am      1 <0>        -0.6171
     25 H2          6.7840    1.0576   -3.2787 H         1 <0>         0.4255
     26 C16         6.5030   -0.5131   -4.5319 C.2       1 <0>         0.4010
     27 N4          5.6228   -1.2443   -5.1861 N.2       1 <0>        -0.5619
     28 S1          8.2164   -0.9006   -4.6687 S.3       1 <0>         0.0102
     29 C17         8.2551   -2.3319   -5.7824 C.3       1 <0>        -0.1358
     30 H3          1.0053    1.8021    0.0021 H         1 <0>         0.0573
     31 H4         -0.5445    1.7859   -0.8732 H         1 <0>         0.0563
     32 H5         -0.5275    1.7763    0.9067 H         1 <0>         0.1022
     33 H6          1.1344    1.2368   -2.0063 H         1 <0>         0.1416
     34 H7          2.3175   -2.3124   -4.0537 H         1 <0>         0.1212
     35 H8          1.3136   -3.6837   -2.2735 H         1 <0>         0.1341
     36 H9         -0.2940   -4.4795   -1.2008 H         1 <0>         0.0942
     37 H10         1.2558   -4.4633   -0.3254 H         1 <0>         0.0929
     38 H11        -0.0843   -6.7220    0.2791 H         1 <0>         0.4029
     39 H12        -0.9098   -6.6128    1.7383 H         1 <0>         0.4098
     40 H13         0.6433    0.0693   -5.4322 H         1 <0>         0.1210
     41 H14         2.0097    0.8012   -6.3047 H         1 <0>         0.1142
     42 H15         3.6634   -2.6343   -6.1259 H         1 <0>         0.4187
     43 H16         7.6829   -3.1493   -5.3435 H         1 <0>         0.0993
     44 H17         7.8182   -2.0571   -6.7425 H         1 <0>         0.0996
     45 H18         9.2873   -2.6493   -5.9304 H         1 <0>         0.1207
@<TRIPOS>BOND
     1    1    2 1
     2    1   30 1
     3    1   31 1
     4    1   32 1
     5    2    3 1
     6    3    8 ar
     7    3    4 ar
     8    4    5 ar
     9    4   33 1
    10    5    6 ar
    11    5   14 1
    12    6    7 ar
    13    6   34 1
    14    7    8 ar
    15    7   35 1
    16    8    9 1
    17    9   10 1
    18   10   11 1
    19   10   36 1
    20   10   37 1
    21   11   12 2
    22   11   13 am
    23   13   38 1
    24   13   39 1
    25   14   15 1
    26   14   21 1
    27   14   16 1
    28   16   17 1
    29   16   40 1
    30   16   41 1
    31   17   18 2
    32   17   19 am
    33   19   20 1
    34   19   42 1
    35   20   27 1
    36   20   21 2
    37   21   22 1
    38   22   23 2
    39   22   24 am
    40   24   25 1
    41   24   26 1
    42   26   27 2
    43   26   28 1
    44   28   29 1
    45   29   43 1
    46   29   44 1
    47   29   45 1
@<TRIPOS>MOLECULE
ZINC33330728
   44    46     0     0     0
SMALL
USER_CHARGES
2-[(2-hydroxy-6-oxo-1H-pyrimidin-5-yl)sulfonylamino]-N-[[(2R)-tetrahydrofuran-2-yl]methyl]benzamide
@<TRIPOS>ATOM
      1 C1         -0.8534    3.1896   -4.7463 C.ar      1 <0>        -0.2158
      2 C2         -1.4311    3.5484   -3.5385 C.ar      1 <0>        -0.0658
      3 C3         -0.6415    3.9128   -2.4674 C.ar      1 <0>        -0.2581
      4 C4          0.7421    3.9223   -2.5940 C.ar      1 <0>         0.2871
      5 C5          1.3299    3.5646   -3.8173 C.ar      1 <0>        -0.1945
      6 C6          0.5164    3.1928   -4.8910 C.ar      1 <0>        -0.0572
      7 C7          2.7965    3.5756   -3.9670 C.2       1 <0>         0.5534
      8 O1          3.5010    3.8954   -3.0288 O.2       1 <0>        -0.4894
      9 N1          3.3565    3.2314   -5.1436 N.am      1 <0>        -0.7537
     10 C8          4.8138    3.2424   -5.2923 C.3       1 <0>         0.1299
     11 C9          5.1847    2.8145   -6.7136 C.3       1 <0>         0.0646
     12 H1          4.6752    3.4642   -7.4404 H         1 <0>         0.0737
     13 C10         6.7167    2.8228   -6.8804 C.3       1 <0>        -0.1509
     14 C11         7.0622    1.3688   -7.2843 C.3       1 <0>        -0.1562
     15 C12         5.7052    0.8508   -7.8251 C.3       1 <0>         0.0491
     16 O2          4.7362    1.4698   -6.9520 O.3       1 <0>        -0.3672
     17 N2          1.5392    4.2892   -1.5176 N.2       1 <0>        -0.9959
     18 S1          1.0897    3.8800    0.0228 S.o2      1 <0>         2.6010
     19 O3         -0.2366    4.3585    0.1996 O.2       1 <0>        -1.0455
     20 O4          2.1592    4.2676    0.8744 O.2       1 <0>        -0.9667
     21 C13         1.0039    2.1214    0.0907 C.2       1 <0>        -0.8123
     22 C14        -0.2027    1.4855    0.1024 C.2       1 <0>         0.2729
     23 N3         -0.2557    0.1555    0.1539 N.am      1 <0>        -0.5987
     24 C15         0.8389   -0.5728    0.1945 C.2       1 <0>         0.6621
     25 N4          2.0686    0.0038    0.1853 N.am      1 <0>        -0.6456
     26 H2          2.9709   -0.6244    0.2198 H         1 <0>         0.4589
     27 C16         2.1788    1.3485    0.1338 C.2       1 <0>         0.5778
     28 O5          3.2755    1.8828    0.1244 O.2       1 <0>        -0.4654
     29 O6          0.7384   -1.9168    0.2465 O.2       1 <0>        -0.6170
     30 H3         -1.4807    2.9056   -5.5783 H         1 <0>         0.1053
     31 H4         -2.5062    3.5423   -3.4351 H         1 <0>         0.1058
     32 H5         -1.0994    4.1915   -1.5298 H         1 <0>         0.1500
     33 H6          0.9610    2.9120   -5.8343 H         1 <0>         0.1068
     34 H7          2.7192    2.9422   -5.9922 H         1 <0>         0.4086
     35 H8          5.1940    4.2573   -5.1039 H         1 <0>         0.0716
     36 H9          5.2614    2.5434   -4.5704 H         1 <0>         0.0651
     37 H10         6.9966    3.5457   -7.6609 H         1 <0>         0.0766
     38 H11         7.1876    3.1100   -5.9287 H         1 <0>         0.0832
     39 H12         7.8541    1.3786   -8.0477 H         1 <0>         0.0782
     40 H13         7.4122    0.8159   -6.4001 H         1 <0>         0.0774
     41 H14         5.5846    1.1635   -8.8728 H         1 <0>         0.0595
     42 H15         5.6816   -0.2473   -7.7652 H         1 <0>         0.0917
     43 H16        -1.0487    2.0178    0.0723 H         1 <0>         0.1750
     44 H17        -1.2416   -0.3324    0.1621 H         1 <0>         0.4711
@<TRIPOS>BOND
     1    1    6 ar
     2    1    2 ar
     3    1   30 1
     4    2    3 ar
     5    2   31 1
     6    3    4 ar
     7    3   32 1
     8    4    5 ar
     9    4   17 1
    10    5    6 ar
    11    5    7 1
    12    6   33 1
    13    7    8 2
    14    7    9 am
    15    9   10 1
    16    9   34 1
    17   10   11 1
    18   10   35 1
    19   10   36 1
    20   11   12 1
    21   11   16 1
    22   11   13 1
    23   13   14 1
    24   13   37 1
    25   13   38 1
    26   14   15 1
    27   14   39 1
    28   14   40 1
    29   15   16 1
    30   15   41 1
    31   15   42 1
    32   17   18 1
    33   18   19 2
    34   18   20 2
    35   18   21 1
    36   21   27 1
    37   21   22 2
    38   22   23 1
    39   22   43 1
    40   23   44 1
    41   23   24 am
    42   24   29 2
    43   24   25 am
    44   25   26 1
    45   25   27 am
    46   27   28 2
@<TRIPOS>MOLECULE
ZINC38793992
   40    42     0     0     0
SMALL
USER_CHARGES

@<TRIPOS>ATOM
      1 C1         -0.0225    1.8097    0.0120 C.3       1 <0>        -0.6544
      2 S1          0.0021   -0.0041    0.0020 S.o2      1 <0>         2.4175
      3 O1          0.7981   -0.4488    1.0919 O.2       1 <0>        -0.9073
      4 O2         -1.3351   -0.4711   -0.1129 O.2       1 <0>        -0.9079
      5 C2          0.8774   -0.3845   -1.5406 C.3       1 <0>        -0.2664
      6 H1          0.9739   -1.4629   -1.6662 H         1 <0>         0.1583
      7 N1          0.1678    0.2091   -2.6974 N.3       1 <0>        -0.4568
      8 N2          1.2131    0.6758   -3.6103 N.3       1 <0>        -0.4748
      9 C3          2.4993    0.3396   -2.9572 C.3       1 <0>         0.2064
     10 H2          2.8754   -0.6146   -3.3262 H         1 <0>         0.1214
     11 O3          2.1794    0.2430   -1.5497 O.3       1 <0>        -0.3639
     12 C4          3.5268    1.4470   -3.1998 C.3       1 <0>        -0.1375
     13 C5          4.8795    1.0226   -2.6245 C.3       1 <0>         0.1182
     14 N3          5.8634    2.0830   -2.8568 N.pl3     1 <0>        -1.1218
     15 S2          7.2997    2.0748   -2.0327 S.o2      1 <0>         2.7063
     16 O4          8.0372    3.1998   -2.4908 O.2       1 <0>        -0.9669
     17 O5          6.9802    1.8803   -0.6618 O.2       1 <0>        -0.9630
     18 C6          8.1893    0.6447   -2.5503 C.ar      1 <0>        -0.7248
     19 C7          8.0218   -0.5531   -1.8723 C.ar      1 <0>        -0.0200
     20 C8          8.7104   -1.6792   -2.2662 C.ar      1 <0>        -0.1415
     21 C9          9.5815   -1.6125   -3.3544 C.ar      1 <0>         0.1521
     22 C10         9.7480   -0.3987   -4.0376 C.ar      1 <0>        -0.0617
     23 C11         9.0436    0.7232   -3.6313 C.ar      1 <0>         0.0294
     24 O6         10.6380   -0.6381   -5.0277 O.3       1 <0>        -0.2713
     25 C12        11.0024   -1.9298   -4.9610 C.2       1 <0>         0.5246
     26 O7         11.8817   -2.5301   -5.7942 O.3       1 <0>        -0.6286
     27 N4         10.3844   -2.5210   -3.9738 N.2       1 <0>        -0.6056
     28 H3          1.0001    2.1870    0.0043 H         1 <0>         0.1391
     29 H4         -0.5497    2.1708   -0.8711 H         1 <0>         0.1250
     30 H5         -0.5327    2.1613    0.9088 H         1 <0>         0.1429
     31 H6         -0.4244    0.9721   -2.4056 H         1 <0>         0.3254
     32 H7          1.1372    1.6693   -3.7694 H         1 <0>         0.3395
     33 H8          3.6264    1.6219   -4.2711 H         1 <0>         0.1042
     34 H9          3.1956    2.3634   -2.7114 H         1 <0>         0.0845
     35 H10         4.7800    0.8478   -1.5532 H         1 <0>         0.0904
     36 H11         5.2108    0.1062   -3.1130 H         1 <0>         0.0763
     37 H12         5.6735    2.7898   -3.4934 H         1 <0>         0.4157
     38 H13         7.3476   -0.6034   -1.0300 H         1 <0>         0.1347
     39 H14         8.5770   -2.6099   -1.7348 H         1 <0>         0.1292
     40 H15         9.1659    1.6585   -4.1572 H         1 <0>         0.1331
@<TRIPOS>BOND
     1    1    2 1
     2    1   28 1
     3    1   29 1
     4    1   30 1
     5    2    3 2
     6    2    4 2
     7    2    5 1
     8    5    6 1
     9    5   11 1
    10    5    7 1
    11    7    8 1
    12    7   31 1
    13    8    9 1
    14    8   32 1
    15    9   10 1
    16    9   11 1
    17    9   12 1
    18   12   13 1
    19   12   33 1
    20   12   34 1
    21   13   14 1
    22   13   35 1
    23   13   36 1
    24   14   15 1
    25   14   37 1
    26   15   16 2
    27   15   17 2
    28   15   18 1
    29   18   23 ar
    30   18   19 ar
    31   19   20 ar
    32   19   38 1
    33   20   21 ar
    34   20   39 1
    35   21   27 1
    36   21   22 ar
    37   22   23 ar
    38   22   24 1
    39   23   40 1
    40   24   25 1
    41   25   26 1
    42   25   27 2
@<TRIPOS>MOLECULE
ZINC38571099
   60    61     0     0     0
SMALL
USER_CHARGES

@<TRIPOS>ATOM
      1 C1         -0.1969    2.1098    0.7332 C.3       1 <0>        -0.1813
      2 C2          0.0024    0.8136   -0.0549 C.3       1 <0>         0.1064
      3 H1         -0.9662    0.3504   -0.2432 H         1 <0>         0.0650
      4 C3          0.8778   -0.1456    0.7541 C.3       1 <0>         0.0795
      5 H2          0.3520   -0.4386    1.6629 H         1 <0>         0.0925
      6 C4          1.1756   -1.3710   -0.0711 C.2       1 <0>         0.4995
      7 O1          2.1620   -1.3988   -0.7871 O.co2     1 <0>        -0.6708
      8 O2          0.4301   -2.3345   -0.0226 O.co2     1 <0>        -0.6993
      9 N1          2.1331    0.5208    1.1094 N.am      1 <0>        -0.6772
     10 C5          2.8266    0.1182    2.1927 C.2       1 <0>         0.5097
     11 O3          2.3674   -0.7325    2.9250 O.2       1 <0>        -0.5481
     12 C6          4.1727    0.7250    2.4939 C.3       1 <0>         0.1521
     13 H3          4.1813    1.7670    2.1740 H         1 <0>         0.1067
     14 C7          5.2598   -0.0476    1.7441 C.3       1 <0>        -0.0950
     15 C8          4.9959    0.0317    0.2391 C.3       1 <0>        -0.1675
     16 C9          6.6271    0.5645    2.0551 C.3       1 <0>        -0.1364
     17 N2          4.4289    0.6543    3.9346 N.am      1 <0>        -0.7182
     18 C10         5.2713    1.5330    4.5132 C.2       1 <0>         0.7215
     19 O4          5.7464    2.4410    3.8587 O.2       1 <0>        -0.5574
     20 N3          5.5872    1.4052    5.8171 N.am      1 <0>        -0.5626
     21 C11         6.3700    2.3641    6.4781 C.ar      1 <0>         0.1284
     22 C12         7.3052    3.1219    5.8009 C.ar      1 <0>        -0.1110
     23 C13         8.0621    4.0541    6.4896 C.ar      1 <0>        -0.1047
     24 C14         7.8856    4.2284    7.8510 C.ar      1 <0>        -0.1296
     25 C15         6.9521    3.4779    8.5386 C.ar      1 <0>        -0.0809
     26 C16         6.1823    2.5386    7.8569 C.ar      1 <0>         0.0831
     27 N4          5.2404    1.7908    8.5115 N.2       1 <0>        -0.5483
     28 C17         4.7177    0.7332    7.9783 C.2       1 <0>         0.3554
     29 C18         5.1208    0.2567    6.6113 C.3       1 <0>         0.1592
     30 H4          4.2645   -0.2040    6.1187 H         1 <0>         0.1201
     31 C19         6.2502   -0.7671    6.7434 C.3       1 <0>        -0.0973
     32 C20         5.7634   -1.9597    7.5690 C.3       1 <0>        -0.1476
     33 C21         6.6689   -1.2467    5.3522 C.3       1 <0>        -0.1509
     34 O5          3.7840    0.0430    8.6657 O.3       1 <0>        -0.4524
     35 O6          0.6406    1.1061   -1.2995 O.3       1 <0>        -0.5444
     36 H5          0.7717    2.5730    0.9215 H         1 <0>         0.0600
     37 H6         -0.8205    2.7932    0.1569 H         1 <0>         0.0543
     38 H7         -0.6837    1.8867    1.6826 H         1 <0>         0.0625
     39 H8          2.4651    1.2518    0.5651 H         1 <0>         0.3995
     40 H9          5.2482   -1.0906    2.0605 H         1 <0>         0.0755
     41 H10         4.9188    1.0766   -0.0617 H         1 <0>         0.0501
     42 H11         5.8170   -0.4417   -0.2992 H         1 <0>         0.0561
     43 H12         4.0639   -0.4832    0.0060 H         1 <0>         0.1033
     44 H13         6.8151    0.5080    3.1272 H         1 <0>         0.0489
     45 H14         7.4016    0.0141    1.5209 H         1 <0>         0.0507
     46 H15         6.6388    1.6075    1.7386 H         1 <0>         0.0633
     47 H16         3.9922   -0.0249    4.4721 H         1 <0>         0.4050
     48 H17         7.4456    2.9875    4.7386 H         1 <0>         0.1523
     49 H18         8.7940    4.6478    5.9621 H         1 <0>         0.1277
     50 H19         8.4825    4.9566    8.3799 H         1 <0>         0.1266
     51 H20         6.8199    3.6186    9.6012 H         1 <0>         0.1314
     52 H21         7.1031   -0.3050    7.2404 H         1 <0>         0.0778
     53 H22         4.9105   -2.4218    7.0719 H         1 <0>         0.0661
     54 H23         6.5680   -2.6890    7.6630 H         1 <0>         0.0645
     55 H24         5.4651   -1.6180    8.5601 H         1 <0>         0.0619
     56 H25         7.0157   -0.3971    4.7640 H         1 <0>         0.0600
     57 H26         7.4735   -1.9761    5.4463 H         1 <0>         0.0658
     58 H27         5.8160   -1.7088    4.8552 H         1 <0>         0.0647
     59 H28         3.5790    0.4162    9.5339 H         1 <0>         0.4097
     60 H29         0.1406    1.7101   -1.8655 H         1 <0>         0.3637
@<TRIPOS>BOND
     1    1    2 1
     2    1   36 1
     3    1   37 1
     4    1   38 1
     5    2    3 1
     6    2    4 1
     7    2   35 1
     8    4    5 1
     9    4    6 1
    10    4    9 1
    11    6    7 2
    12    6    8 1
    13    9   10 am
    14    9   39 1
    15   10   11 2
    16   10   12 1
    17   12   13 1
    18   12   14 1
    19   12   17 1
    20   14   15 1
    21   14   16 1
    22   14   40 1
    23   15   41 1
    24   15   42 1
    25   15   43 1
    26   16   44 1
    27   16   45 1
    28   16   46 1
    29   17   18 am
    30   17   47 1
    31   18   19 2
    32   18   20 am
    33   20   29 1
    34   20   21 1
    35   21   26 ar
    36   21   22 ar
    37   22   23 ar
    38   22   48 1
    39   23   24 ar
    40   23   49 1
    41   24   25 ar
    42   24   50 1
    43   25   26 ar
    44   25   51 1
    45   26   27 1
    46   27   28 2
    47   28   29 1
    48   28   34 1
    49   29   30 1
    50   29   31 1
    51   31   32 1
    52   31   33 1
    53   31   52 1
    54   32   53 1
    55   32   54 1
    56   32   55 1
    57   33   56 1
    58   33   57 1
    59   33   58 1
    60   34   59 1
    61   35   60 1
@<TRIPOS>MOLECULE
ZINC02120334
   52    53     0     0     0
SMALL
USER_CHARGES
2-[2-[2-(4-ethyl-2-oxo-chromen-7-yl)oxyacetyl]aminoacetyl]amino-3-methyl-butanoic acid
@<TRIPOS>ATOM
      1 C1         -1.8687    6.4941    1.4908 C.3       1 <0>        -0.1503
      2 C2         -1.3790    6.3503    0.0484 C.3       1 <0>        -0.0972
      3 C3         -0.0821    5.5829    0.0324 C.2       1 <0>         0.0469
      4 C4          1.1119    6.2307    0.0249 C.2       1 <0>        -0.2667
      5 C5          2.3116    5.4900    0.0095 C.2       1 <0>         0.5130
      6 O1          3.3752    6.0835    0.0029 O.2       1 <0>        -0.4673
      7 O2          2.3117    4.1478    0.0022 O.3       1 <0>        -0.2699
      8 C6          1.1600    3.4429    0.0090 C.ar      1 <0>         0.1910
      9 C7         -0.0747    4.1185    0.0240 C.ar      1 <0>        -0.1938
     10 C8         -1.2707    3.3921    0.0320 C.ar      1 <0>        -0.0114
     11 C9         -1.2355    2.0276    0.0189 C.ar      1 <0>        -0.2276
     12 C10        -0.0163    1.3533    0.0095 C.ar      1 <0>         0.1934
     13 C11         1.1774    2.0566    0.0019 C.ar      1 <0>        -0.1722
     14 O3          0.0021   -0.0041    0.0020 O.3       1 <0>        -0.2770
     15 C12        -1.2622   -0.6701    0.0105 C.3       1 <0>         0.0393
     16 C13        -1.0445   -2.1612    0.0004 C.2       1 <0>         0.5176
     17 O4          0.0823   -2.6095   -0.0127 O.2       1 <0>        -0.5187
     18 N1         -2.1021   -2.9967    0.0060 N.am      1 <0>        -0.7072
     19 C14        -1.8905   -4.4463   -0.0038 C.3       1 <0>         0.1037
     20 C15        -3.2237   -5.1487    0.0052 C.2       1 <0>         0.5109
     21 O5         -4.2497   -4.5021    0.0185 O.2       1 <0>        -0.5456
     22 N2         -3.2760   -6.4954   -0.0015 N.am      1 <0>        -0.6924
     23 H1         -2.4554   -7.0126   -0.0122 H         1 <0>         0.3953
     24 C16        -4.5721   -7.1782    0.0072 C.3       1 <0>         0.1000
     25 H2         -5.2915   -6.5996   -0.5723 H         1 <0>         0.0882
     26 C17        -4.4199   -8.5693   -0.6114 C.3       1 <0>        -0.0804
     27 C18        -3.5069   -9.4228    0.2711 C.3       1 <0>        -0.1456
     28 C19        -5.7941   -9.2338   -0.7166 C.3       1 <0>        -0.1560
     29 C20        -5.0608   -7.3104    1.4266 C.2       1 <0>         0.4649
     30 O6         -4.3947   -6.8785    2.3375 O.co2     1 <0>        -0.6306
     31 H3         -2.8067    7.0491    1.5024 H         1 <0>         0.0685
     32 H4         -2.0264    5.5052    1.9212 H         1 <0>         0.0615
     33 H5         -1.1219    7.0304    2.0763 H         1 <0>         0.0613
     34 H6         -1.2213    7.3392   -0.3821 H         1 <0>         0.0879
     35 H7         -2.1257    5.8140   -0.5371 H         1 <0>         0.0871
     36 H8          1.1422    7.3103    0.0312 H         1 <0>         0.1614
     37 H9         -2.2186    3.9094    0.0431 H         1 <0>         0.1444
     38 H10        -2.1586    1.4671    0.0203 H         1 <0>         0.1446
     39 H11         2.1184    1.5267   -0.0093 H         1 <0>         0.1555
     40 H12        -1.8146   -0.3896    0.9073 H         1 <0>         0.1031
     41 H13        -1.8316   -0.3800   -0.8725 H         1 <0>         0.1021
     42 H14        -3.0033   -2.6382    0.0166 H         1 <0>         0.4144
     43 H15        -1.3380   -4.7268   -0.9006 H         1 <0>         0.0982
     44 H16        -1.3211   -4.7364    0.8793 H         1 <0>         0.1022
     45 H17        -3.9830   -8.4789   -1.6059 H         1 <0>         0.0586
     46 H18        -3.3985  -10.4138   -0.1696 H         1 <0>         0.0500
     47 H19        -2.5279   -8.9493    0.3460 H         1 <0>         0.0446
     48 H20        -3.9438   -9.5132    1.2656 H         1 <0>         0.0671
     49 H21        -6.4445   -8.6258   -1.3453 H         1 <0>         0.0439
     50 H22        -5.6856  -10.2248   -1.1573 H         1 <0>         0.0385
     51 H23        -6.2310   -9.3242    0.2779 H         1 <0>         0.1062
     52 O7         -6.2360   -7.9078    1.6790 O.co2     1 <0>        -0.7555
@<TRIPOS>BOND
     1    1    2 1
     2    1   31 1
     3    1   32 1
     4    1   33 1
     5    2    3 1
     6    2   34 1
     7    2   35 1
     8    3    9 1
     9    3    4 2
    10    4    5 1
    11    4   36 1
    12    5    6 2
    13    5    7 1
    14    7    8 1
    15    8   13 ar
    16    8    9 ar
    17    9   10 ar
    18   10   11 ar
    19   10   37 1
    20   11   12 ar
    21   11   38 1
    22   12   13 ar
    23   12   14 1
    24   13   39 1
    25   14   15 1
    26   15   16 1
    27   15   40 1
    28   15   41 1
    29   16   17 2
    30   16   18 am
    31   18   19 1
    32   18   42 1
    33   19   20 1
    34   19   43 1
    35   19   44 1
    36   20   21 2
    37   20   22 am
    38   22   23 1
    39   22   24 1
    40   24   25 1
    41   24   26 1
    42   24   29 1
    43   26   27 1
    44   26   28 1
    45   26   45 1
    46   27   46 1
    47   27   47 1
    48   27   48 1
    49   28   49 1
    50   28   50 1
    51   28   51 1
    52   29   30 2
    53   29   52 1
@<TRIPOS>MOLECULE
ZINC13250396
   49    51     0     0     0
SMALL
USER_CHARGES
1-[2-[[3-(2-furylmethylsulfamoyl)phenyl]amino]-2-oxo-ethyl]cyclopentane-1-carboxylic acid
@<TRIPOS>ATOM
      1 C1         -3.7815   -0.6641    0.1254 C.ar      1 <0>        -0.1182
      2 C2         -2.5426   -0.0533    0.1139 C.ar      1 <0>        -0.0631
      3 C3         -2.4521    1.3280    0.0051 C.ar      1 <0>         0.1448
      4 C4         -3.6082    2.0902   -0.1030 C.ar      1 <0>        -0.0512
      5 C5         -4.8435    1.4732   -0.0963 C.ar      1 <0>        -0.6603
      6 C6         -4.9304    0.0976    0.0176 C.ar      1 <0>        -0.0477
      7 S1         -6.3106    2.4393   -0.2334 S.o2      1 <0>         2.6976
      8 O1         -7.3573    1.6728    0.3464 O.2       1 <0>        -0.9531
      9 O2         -5.9810    3.7449    0.2206 O.2       1 <0>        -0.9516
     10 N1         -6.6597    2.5732   -1.8466 N.pl3     1 <0>        -1.1168
     11 C7         -7.0172    1.3815   -2.6201 C.3       1 <0>         0.1988
     12 C8         -7.6351    1.7992   -3.9295 C.2       1 <0>        -0.0280
     13 C9         -6.9702    2.0224   -5.0774 C.2       1 <0>        -0.1858
     14 C10        -7.9340    2.3909   -6.0440 C.2       1 <0>        -0.2180
     15 C11        -9.1302    2.3708   -5.4290 C.2       1 <0>        -0.0303
     16 O3         -8.9437    2.0061   -4.1499 O.3       1 <0>        -0.1699
     17 N2         -1.1989    1.9502   -0.0014 N.am      1 <0>        -0.6870
     18 C12        -0.2015    1.4646    0.7640 C.2       1 <0>         0.5075
     19 O4         -0.3641    0.4414    1.3946 O.2       1 <0>        -0.4773
     20 C13         1.1179    2.1897    0.8315 C.3       1 <0>        -0.1080
     21 C14         2.0237    1.5060    1.8576 C.3       1 <0>        -0.0921
     22 C15         3.3753    2.2445    1.9446 C.3       1 <0>        -0.1019
     23 C16         4.4140    1.1120    2.1447 C.3       1 <0>        -0.1220
     24 C17         3.8665   -0.0189    1.2389 C.3       1 <0>        -0.1236
     25 C18         2.3357    0.0674    1.4095 C.3       1 <0>        -0.1028
     26 C19         1.3550    1.4925    3.2081 C.2       1 <0>         0.4790
     27 O5          1.0747    0.4409    3.7329 O.co2     1 <0>        -0.6178
     28 H1         -3.8527   -1.7381    0.2138 H         1 <0>         0.1358
     29 H2         -1.6454   -0.6492    0.1937 H         1 <0>         0.1484
     30 H3         -3.5410    3.1645   -0.1920 H         1 <0>         0.1420
     31 H4         -5.8977   -0.3827    0.0219 H         1 <0>         0.1392
     32 H5         -6.6275    3.4407   -2.2794 H         1 <0>         0.4218
     33 H6         -6.1213    0.7913   -2.8130 H         1 <0>         0.1005
     34 H7         -7.7320    0.7828   -2.0556 H         1 <0>         0.0998
     35 H8         -5.9046    1.9372   -5.2310 H         1 <0>         0.1522
     36 H9         -7.7459    2.6409   -7.0776 H         1 <0>         0.1502
     37 H10       -10.0800    2.6034   -5.8874 H         1 <0>         0.2044
     38 H11        -1.0479    2.7309   -0.5568 H         1 <0>         0.4089
     39 H12         1.5959    2.1662   -0.1478 H         1 <0>         0.0850
     40 H13         0.9489    3.2247    1.1286 H         1 <0>         0.0979
     41 H14         3.5746    2.7856    1.0196 H         1 <0>         0.0544
     42 H15         3.3838    2.9257    2.7955 H         1 <0>         0.0740
     43 H16         4.4411    0.7934    3.1867 H         1 <0>         0.0646
     44 H17         5.4031    1.4279    1.8130 H         1 <0>         0.0565
     45 H18         4.2338   -0.9885    1.5751 H         1 <0>         0.0556
     46 H19         4.1450    0.1562    0.1997 H         1 <0>         0.0528
     47 H20         2.0043   -0.6405    2.1692 H         1 <0>         0.0897
     48 H21         1.8418   -0.1437    0.4611 H         1 <0>         0.0436
     49 O6          1.0708    2.6487    3.8278 O.co2     1 <0>        -0.7783
@<TRIPOS>BOND
     1    1    6 ar
     2    1    2 ar
     3    1   28 1
     4    2    3 ar
     5    2   29 1
     6    3    4 ar
     7    3   17 1
     8    4    5 ar
     9    4   30 1
    10    5    6 ar
    11    5    7 1
    12    6   31 1
    13    7    8 2
    14    7    9 2
    15    7   10 1
    16   10   11 1
    17   10   32 1
    18   11   12 1
    19   11   33 1
    20   11   34 1
    21   12   16 1
    22   12   13 2
    23   13   14 1
    24   13   35 1
    25   14   15 2
    26   14   36 1
    27   15   16 1
    28   15   37 1
    29   17   18 am
    30   17   38 1
    31   18   19 2
    32   18   20 1
    33   20   21 1
    34   20   39 1
    35   20   40 1
    36   21   25 1
    37   21   22 1
    38   21   26 1
    39   22   23 1
    40   22   41 1
    41   22   42 1
    42   23   24 1
    43   23   43 1
    44   23   44 1
    45   24   25 1
    46   24   45 1
    47   24   46 1
    48   25   47 1
    49   25   48 1
    50   26   27 2
    51   26   49 1
@<TRIPOS>MOLECULE
ZINC22977599
   43    45     0     0     0
SMALL
USER_CHARGES
4-(cyclopropylsulfamoyl)-N-[(2-hydroxy-5-nitro-phenyl)methyl]benzamide
@<TRIPOS>ATOM
      1 C1          4.2286    3.7461    3.9301 C.ar      1 <0>        -0.1057
      2 C2          4.8156    3.6866    5.1772 C.ar      1 <0>        -0.0298
      3 C3          6.0182    4.3298    5.4105 C.ar      1 <0>        -0.6709
      4 C4          6.6427    5.0319    4.3949 C.ar      1 <0>        -0.0273
      5 C5          6.0692    5.0944    3.1417 C.ar      1 <0>        -0.0853
      6 C6          4.8562    4.4478    2.8996 C.ar      1 <0>        -0.0619
      7 C7          4.2357    4.5111    1.5592 C.2       1 <0>         0.5446
      8 O1          4.7820    5.1272    0.6650 O.2       1 <0>        -0.5448
      9 N1          3.0643    3.8856    1.3287 N.am      1 <0>        -0.7049
     10 C8          2.4494    3.9483    0.0004 C.3       1 <0>         0.1987
     11 C9          1.1570    3.1734    0.0081 C.ar      1 <0>        -0.2559
     12 C10        -0.0511    3.8437    0.0233 C.ar      1 <0>         0.0155
     13 C11        -1.2370    3.1334    0.0303 C.ar      1 <0>        -0.1818
     14 C12        -1.2177    1.7507    0.0173 C.ar      1 <0>        -0.0087
     15 C13        -0.0126    1.0758    0.0080 C.ar      1 <0>        -0.2487
     16 C14         1.1791    1.7864    0.0004 C.ar      1 <0>         0.3137
     17 O2          2.3661    1.1248   -0.0150 O.3       1 <0>        -0.6639
     18 N2         -2.5297    3.8540    0.0456 N.pl3     1 <0>         0.0676
     19 O3         -2.5480    5.0718    0.0520 O.2       1 <0>        -0.2245
     20 O4         -3.5752    3.2292    0.0518 O.3       1 <0>        -0.2234
     21 S1          6.7580    4.2539    7.0078 S.o2      1 <0>         2.6963
     22 O5          6.2525    3.0829    7.6343 O.2       1 <0>        -0.9528
     23 O6          8.1488    4.4787    6.8224 O.2       1 <0>        -0.9575
     24 N3          6.1821    5.5413    7.8758 N.pl3     1 <0>        -1.1197
     25 C15         4.7585    5.6195    8.2127 C.3       1 <0>         0.0195
     26 C16         4.1214    7.0094    8.2697 C.3       1 <0>        -0.1403
     27 C17         4.3849    6.2350    9.5627 C.3       1 <0>        -0.1358
     28 H1          3.2877    3.2473    3.7505 H         1 <0>         0.1394
     29 H2          4.3333    3.1402    5.9742 H         1 <0>         0.1441
     30 H3          7.5812    5.5318    4.5835 H         1 <0>         0.1448
     31 H4          6.5580    5.6422    2.3496 H         1 <0>         0.1466
     32 H5          2.5699    3.3280    2.1379 H         1 <0>         0.4191
     33 H6          2.2463    4.9974   -0.2605 H         1 <0>         0.0622
     34 H7          3.1342    3.5119   -0.7416 H         1 <0>         0.0754
     35 H8         -0.0689    4.9236    0.0293 H         1 <0>         0.1262
     36 H9         -2.1456    1.1980    0.0187 H         1 <0>         0.1256
     37 H10         0.0021   -0.0041    0.0020 H         1 <0>         0.1217
     38 H11         6.8373    6.4072    8.0518 H         1 <0>         0.4272
     39 H12         4.5560    4.6742    7.6878 H         1 <0>         0.1155
     40 H13         4.8060    7.7452    7.8225 H         1 <0>         0.1079
     41 H14         3.1746    7.0020    7.7099 H         1 <0>         0.1110
     42 H15         3.6559    5.5874   10.0717 H         1 <0>         0.1113
     43 H16         5.2873    6.3306   10.1844 H         1 <0>         0.1098
@<TRIPOS>BOND
     1    1    6 ar
     2    1    2 ar
     3    1   28 1
     4    2    3 ar
     5    2   29 1
     6    3    4 ar
     7    3   21 1
     8    4    5 ar
     9    4   30 1
    10    5    6 ar
    11    5   31 1
    12    6    7 1
    13    7    8 2
    14    7    9 am
    15    9   10 1
    16    9   32 1
    17   10   11 1
    18   10   33 1
    19   10   34 1
    20   11   16 ar
    21   11   12 ar
    22   12   13 ar
    23   12   35 1
    24   13   14 ar
    25   13   18 1
    26   14   15 ar
    27   14   36 1
    28   15   16 ar
    29   15   37 1
    30   16   17 1
    31   18   19 2
    32   18   20 1
    33   21   22 2
    34   21   23 2
    35   21   24 1
    36   24   25 1
    37   24   38 1
    38   25   27 1
    39   25   26 1
    40   25   39 1
    41   26   27 1
    42   26   40 1
    43   26   41 1
    44   27   42 1
    45   27   43 1
@<TRIPOS>MOLECULE
ZINC40096997
   55    58     0     0     0
SMALL
USER_CHARGES

@<TRIPOS>ATOM
      1 C1         -4.3199   -4.3146    2.3982 C.3       1 <0>         0.0240
      2 O1         -3.0120   -4.1033    1.8626 O.3       1 <0>        -0.3121
      3 C2         -2.8343   -3.0032    1.0830 C.ar      1 <0>         0.0939
      4 C3         -3.8728   -2.1032    0.9052 C.ar      1 <0>        -0.1572
      5 C4         -3.6904   -0.9852    0.1129 C.ar      1 <0>        -0.0351
      6 C5         -2.4733   -0.7624   -0.5039 C.ar      1 <0>        -0.1215
      7 C6         -1.4333   -1.6566   -0.3311 C.ar      1 <0>        -0.1131
      8 C7         -1.6076   -2.7760    0.4668 C.ar      1 <0>         0.0626
      9 O2         -0.5836   -3.6535    0.6428 O.3       1 <0>        -0.4878
     10 C8         -4.8209   -0.0074   -0.0794 C.3       1 <0>         0.2526
     11 H1         -4.4764    0.8562   -0.6483 H         1 <0>         0.0769
     12 C9         -5.3591    0.4347    1.2614 C.2       1 <0>        -0.4794
     13 C10        -6.6590    0.0610    1.3027 C.2       1 <0>         0.2865
     14 C11        -7.0104   -0.6155    0.0377 C.2       1 <0>         0.5127
     15 O3         -8.1062   -1.0669   -0.2306 O.2       1 <0>        -0.5127
     16 N1         -5.9376   -0.6575   -0.7754 N.am      1 <0>        -0.6065
     17 C12        -5.8924   -1.2463   -2.1161 C.3       1 <0>         0.1410
     18 C13        -5.4936   -2.7198   -2.0127 C.3       1 <0>         0.0397
     19 O4         -6.5121   -3.4413   -1.3170 O.3       1 <0>        -0.3559
     20 C14        -6.2365   -4.8352   -1.1653 C.3       1 <0>         0.0623
     21 C15        -7.3875   -5.5035   -0.4106 C.3       1 <0>         0.0793
     22 O5         -8.5768   -5.4371   -1.2000 O.3       1 <0>        -0.5623
     23 O6         -7.5034    0.2734    2.3390 O.3       1 <0>        -0.6017
     24 C16        -4.6160    1.1346    2.3149 C.2       1 <0>         0.4867
     25 O7         -5.1342    1.3277    3.4002 O.2       1 <0>        -0.4690
     26 C17        -3.2470    1.6026    2.0610 C.2       1 <0>         0.0095
     27 C18        -2.4302    2.1752    2.9871 C.2       1 <0>        -0.1693
     28 C19        -1.1802    2.4766    2.2926 C.ar      1 <0>        -0.1338
     29 C20         0.0321    3.0567    2.6765 C.ar      1 <0>        -0.0684
     30 C21         1.0343    3.2003    1.7594 C.ar      1 <0>        -0.1443
     31 C22         0.8562    2.7741    0.4500 C.ar      1 <0>        -0.0988
     32 C23        -0.3317    2.1999    0.0511 C.ar      1 <0>        -0.1069
     33 C24        -1.3660    2.0426    0.9661 C.ar      1 <0>         0.0593
     34 O8         -2.6067    1.5249    0.8761 O.3       1 <0>        -0.1641
     35 H2         -4.3480   -5.2700    2.9221 H         1 <0>         0.0969
     36 H3         -4.5615   -3.5113    3.0943 H         1 <0>         0.0593
     37 H4         -5.0477   -4.3235    1.5869 H         1 <0>         0.0539
     38 H5         -4.8247   -2.2753    1.3854 H         1 <0>         0.1309
     39 H6         -2.3349    0.1121   -1.1225 H         1 <0>         0.1243
     40 H7         -0.4837   -1.4804   -0.8143 H         1 <0>         0.1288
     41 H8         -0.5576   -4.3641   -0.0126 H         1 <0>         0.3773
     42 H9         -6.8753   -1.1677   -2.5808 H         1 <0>         0.0875
     43 H10        -5.1601   -0.7134   -2.7225 H         1 <0>         0.0903
     44 H11        -5.3734   -3.1347   -3.0135 H         1 <0>         0.0506
     45 H12        -4.5526   -2.8042   -1.4690 H         1 <0>         0.0541
     46 H13        -6.1317   -5.2941   -2.1484 H         1 <0>         0.0503
     47 H14        -5.3110   -4.9636   -0.6040 H         1 <0>         0.0550
     48 H15        -7.1378   -6.5467   -0.2169 H         1 <0>         0.0552
     49 H16        -7.5500   -4.9871    0.5354 H         1 <0>         0.0550
     50 H17        -9.3491   -5.8426   -0.7826 H         1 <0>         0.3766
     51 H18        -2.6594    2.3677    4.0248 H         1 <0>         0.1604
     52 H19         0.1757    3.3903    3.6937 H         1 <0>         0.1238
     53 H20         1.9714    3.6488    2.0547 H         1 <0>         0.1241
     54 H21         1.6574    2.8941   -0.2641 H         1 <0>         0.1297
     55 H22        -0.4584    1.8730   -0.9704 H         1 <0>         0.1289
@<TRIPOS>BOND
     1    1    2 1
     2    1   35 1
     3    1   36 1
     4    1   37 1
     5    2    3 1
     6    3    8 ar
     7    3    4 ar
     8    4    5 ar
     9    4   38 1
    10    5    6 ar
    11    5   10 1
    12    6    7 ar
    13    6   39 1
    14    7    8 ar
    15    7   40 1
    16    8    9 1
    17    9   41 1
    18   10   11 1
    19   10   16 1
    20   10   12 1
    21   12   13 2
    22   12   24 1
    23   13   14 1
    24   13   23 1
    25   14   15 2
    26   14   16 am
    27   16   17 1
    28   17   18 1
    29   17   42 1
    30   17   43 1
    31   18   19 1
    32   18   44 1
    33   18   45 1
    34   19   20 1
    35   20   21 1
    36   20   46 1
    37   20   47 1
    38   21   22 1
    39   21   48 1
    40   21   49 1
    41   22   50 1
    42   24   25 2
    43   24   26 1
    44   26   34 1
    45   26   27 2
    46   27   28 1
    47   27   51 1
    48   28   33 ar
    49   28   29 ar
    50   29   30 ar
    51   29   52 1
    52   30   31 ar
    53   30   53 1
    54   31   32 ar
    55   31   54 1
    56   32   33 ar
    57   32   55 1
    58   33   34 1
@<TRIPOS>MOLECULE
ZINC61462855
   44    45     0     0     0
SMALL
USER_CHARGES

@<TRIPOS>ATOM
      1 C1         -0.0187    1.5258    0.0104 C.3       1 <0>        -0.1419
      2 C2          0.0021   -0.0041    0.0020 C.3       1 <0>        -0.1173
      3 C3         -1.4333   -0.5336    0.0129 C.3       1 <0>        -0.5924
      4 S1         -1.4087   -2.3475    0.0029 S.o2      1 <0>         2.5181
      5 O1         -0.9086   -2.8233   -1.2391 O.2       1 <0>        -1.0275
      6 O2         -0.8850   -2.8366    1.2300 O.2       1 <0>        -1.0275
      7 N1         -3.0031   -2.7948    0.0157 N.2       1 <0>        -1.0426
      8 C4         -3.3468   -4.1403    0.0118 C.ar      1 <0>         0.3376
      9 C5         -2.3559   -5.1143    0.0028 C.ar      1 <0>        -0.2580
     10 C6         -2.6999   -6.4503   -0.0016 C.ar      1 <0>        -0.0414
     11 C7         -4.0324   -6.8319    0.0029 C.ar      1 <0>        -0.2354
     12 C8         -5.0289   -5.8808    0.0117 C.ar      1 <0>        -0.0398
     13 C9         -4.6969   -4.5235    0.0226 C.ar      1 <0>        -0.2211
     14 C10        -5.7583   -3.5004    0.0387 C.2       1 <0>         0.5705
     15 O3         -5.4652   -2.3202    0.0427 O.2       1 <0>        -0.5013
     16 N2         -7.0535   -3.8731    0.0491 N.am      1 <0>        -0.5429
     17 N3         -8.0621   -2.9008    0.0644 N.am      1 <0>        -0.5052
     18 C11        -9.3573   -3.2736    0.0748 C.2       1 <0>         0.5483
     19 O4         -9.6502   -4.4532    0.0709 O.2       1 <0>        -0.5394
     20 C12       -10.4221   -2.2471    0.0910 C.ar      1 <0>        -0.0897
     21 C13       -10.0855   -0.8920    0.0898 C.ar      1 <0>        -0.0874
     22 C14       -11.0768    0.0640    0.1049 C.ar      1 <0>        -0.0735
     23 C15       -12.4190   -0.3222    0.1214 C.ar      1 <0>        -0.0071
     24 C16       -12.7555   -1.6778    0.1226 C.ar      1 <0>        -0.0768
     25 C17       -11.7639   -2.6334    0.1017 C.ar      1 <0>        -0.0584
     26 C18       -13.4499    0.6716    0.1375 C.1       1 <0>         0.2527
     27 N4        -14.2678    1.4599    0.1503 N.1       1 <0>        -0.4104
     28 H1          1.0039    1.9031    0.0027 H         1 <0>         0.0548
     29 H2         -0.5459    1.8868   -0.8726 H         1 <0>         0.0559
     30 H3         -0.5289    1.8773    0.9072 H         1 <0>         0.0559
     31 H4          0.5123   -0.3556   -0.8948 H         1 <0>         0.0710
     32 H5          0.5293   -0.3651    0.8851 H         1 <0>         0.0710
     33 H6         -1.9435   -0.1821    0.9097 H         1 <0>         0.1209
     34 H7         -1.9605   -0.1726   -0.8702 H         1 <0>         0.1209
     35 H8         -1.3153   -4.8252   -0.0010 H         1 <0>         0.1082
     36 H9         -1.9261   -7.2036   -0.0089 H         1 <0>         0.1067
     37 H10        -4.2908   -7.8805   -0.0010 H         1 <0>         0.1082
     38 H11        -6.0655   -6.1839    0.0148 H         1 <0>         0.1073
     39 H12        -7.2873   -4.8145    0.0460 H         1 <0>         0.4245
     40 H13        -7.8283   -1.9595    0.0676 H         1 <0>         0.4291
     41 H14        -9.0476   -0.5935    0.0774 H         1 <0>         0.1417
     42 H15       -10.8164    1.1121    0.1043 H         1 <0>         0.1418
     43 H16       -13.7933   -1.9766    0.1354 H         1 <0>         0.1414
     44 H17       -12.0240   -3.6816    0.0982 H         1 <0>         0.1504
@<TRIPOS>BOND
     1    1    2 1
     2    1   28 1
     3    1   29 1
     4    1   30 1
     5    2    3 1
     6    2   31 1
     7    2   32 1
     8    3    4 1
     9    3   33 1
    10    3   34 1
    11    4    5 2
    12    4    6 2
    13    4    7 1
    14    7    8 1
    15    8   13 ar
    16    8    9 ar
    17    9   10 ar
    18    9   35 1
    19   10   11 ar
    20   10   36 1
    21   11   12 ar
    22   11   37 1
    23   12   13 ar
    24   12   38 1
    25   13   14 1
    26   14   15 2
    27   14   16 am
    28   16   17 1
    29   16   39 1
    30   17   18 am
    31   17   40 1
    32   18   19 2
    33   18   20 1
    34   20   25 ar
    35   20   21 ar
    36   21   22 ar
    37   21   41 1
    38   22   23 ar
    39   22   42 1
    40   23   24 ar
    41   23   26 1
    42   24   25 ar
    43   24   43 1
    44   25   44 1
    45   26   27 3
@<TRIPOS>MOLECULE
ZINC07814515
   47    48     0     0     0
SMALL
USER_CHARGES
(4,6-diamino-1,3,5-triazin-2-yl)methyl 2-cyano-3-(2,5-dimethyl-1-propyl-pyrrol-3-yl)-prop-2-enoate
@<TRIPOS>ATOM
      1 C1         -2.6136    0.4531  -11.4699 C.3       1 <0>        -0.1516
      2 C2         -2.5735    0.5760   -9.9454 C.3       1 <0>        -0.1392
      3 C3         -1.7481    1.8034   -9.5542 C.3       1 <0>         0.0906
      4 N1         -1.7098    1.9212   -8.0945 N.pl3     1 <0>        -0.4248
      5 C4         -2.6159    2.6153   -7.3452 C.2       1 <0>         0.0135
      6 C5         -2.2883    2.5119   -6.0467 C.2       1 <0>        -0.1555
      7 C6         -1.0704    1.6910   -5.9907 C.2       1 <0>        -0.2209
      8 C7         -0.7767    1.3605   -7.3037 C.2       1 <0>         0.1140
      9 C8          0.3851    0.5191   -7.7656 C.3       1 <0>        -0.1019
     10 C9         -0.3484    1.3106   -4.8312 C.2       1 <0>         0.1453
     11 C10        -0.5504    1.9817   -3.6403 C.2       1 <0>        -0.1591
     12 C11        -1.3760    3.1513   -3.6087 C.1       1 <0>         0.2747
     13 N2         -2.0310    4.0792   -3.5836 N.1       1 <0>        -0.4266
     14 C12         0.0813    1.4958   -2.4078 C.2       1 <0>         0.5340
     15 O1          0.7823    0.5026   -2.4346 O.2       1 <0>        -0.5051
     16 O2         -0.1159    2.1507   -1.2455 O.3       1 <0>        -0.3433
     17 C13         0.5398    1.6135   -0.0667 C.3       1 <0>         0.1431
     18 C14         0.2066    2.4699    1.1277 C.ar      1 <0>         0.4328
     19 N3          0.9808    3.4941    1.4407 N.ar      1 <0>        -0.6197
     20 C15         0.6872    4.2557    2.4922 C.ar      1 <0>         0.6335
     21 N4         -0.3802    3.9789    3.2333 N.ar      1 <0>        -0.6501
     22 C16        -1.1533    2.9454    2.9184 C.ar      1 <0>         0.6334
     23 N5         -0.8560    2.1915    1.8624 N.ar      1 <0>        -0.6197
     24 N6         -2.2628    2.6535    3.6852 N.pl3     1 <0>        -0.8028
     25 N7          1.4933    5.3281    2.8153 N.pl3     1 <0>        -0.8028
     26 C17        -3.8002    3.3723   -7.8887 C.3       1 <0>        -0.0879
     27 H1         -1.5986    0.3453  -11.8525 H         1 <0>         0.0594
     28 H2         -3.2016   -0.4214  -11.7486 H         1 <0>         0.0646
     29 H3         -3.0690    1.3476  -11.8948 H         1 <0>         0.0589
     30 H4         -2.1181   -0.3185   -9.5206 H         1 <0>         0.0718
     31 H5         -3.5885    0.6837   -9.5628 H         1 <0>         0.0717
     32 H6         -2.2035    2.6980   -9.9791 H         1 <0>         0.0957
     33 H7         -0.7332    1.6957   -9.9368 H         1 <0>         0.0957
     34 H8         -2.8139    2.9479   -5.2100 H         1 <0>         0.1523
     35 H9          0.0865   -0.5288   -7.7933 H         1 <0>         0.0880
     36 H10         0.6898    0.8366   -8.7629 H         1 <0>         0.0745
     37 H11         1.2194    0.6411   -7.0748 H         1 <0>         0.0922
     38 H12         0.3595    0.4964   -4.8788 H         1 <0>         0.1576
     39 H13         0.1941    0.5948    0.1089 H         1 <0>         0.1067
     40 H14         1.6188    1.6094   -0.2212 H         1 <0>         0.1069
     41 H15        -2.8266    1.8986    3.4549 H         1 <0>         0.4202
     42 H16        -2.4789    3.2033    4.4546 H         1 <0>         0.4183
     43 H17         1.2808    5.8804    3.5838 H         1 <0>         0.4183
     44 H18         2.2725    5.5296    2.2738 H         1 <0>         0.4202
     45 H19        -4.6643    2.7096   -7.9364 H         1 <0>         0.0743
     46 H20        -4.0242    4.2149   -7.2345 H         1 <0>         0.0831
     47 H21        -3.5687    3.7400   -8.8884 H         1 <0>         0.0656
@<TRIPOS>BOND
     1    1    2 1
     2    1   27 1
     3    1   28 1
     4    1   29 1
     5    2    3 1
     6    2   30 1
     7    2   31 1
     8    3    4 1
     9    3   32 1
    10    3   33 1
    11    4    8 1
    12    4    5 1
    13    5    6 2
    14    5   26 1
    15    6    7 1
    16    6   34 1
    17    7    8 2
    18    7   10 1
    19    8    9 1
    20    9   35 1
    21    9   36 1
    22    9   37 1
    23   10   11 2
    24   10   38 1
    25   11   12 1
    26   11   14 1
    27   12   13 3
    28   14   15 2
    29   14   16 1
    30   16   17 1
    31   17   18 1
    32   17   39 1
    33   17   40 1
    34   18   23 ar
    35   18   19 ar
    36   19   20 ar
    37   20   21 ar
    38   20   25 1
    39   21   22 ar
    40   22   23 ar
    41   22   24 1
    42   24   41 1
    43   24   42 1
    44   25   43 1
    45   25   44 1
    46   26   45 1
    47   26   46 1
    48   26   47 1
@<TRIPOS>MOLECULE
ZINC39444209
   48    50     0     0     0
SMALL
USER_CHARGES

@<TRIPOS>ATOM
      1 C1         -0.0173    1.4248    0.0099 C.3       1 <0>         0.0305
      2 O1          0.0021   -0.0041    0.0020 O.3       1 <0>        -0.3724
      3 C2          0.6518   -0.5703   -1.1379 C.3       1 <0>         0.0374
      4 C3          0.6131   -2.0967   -1.0411 C.3       1 <0>         0.1404
      5 N1         -0.7759   -2.5559   -1.1188 N.am      1 <0>        -0.4553
      6 C4         -1.5305   -2.5866   -0.0017 C.2       1 <0>         0.5194
      7 O2         -1.0803   -2.2002    1.0599 O.2       1 <0>        -0.4902
      8 C5         -2.9128   -3.0968   -0.0901 C.2       1 <0>        -0.1575
      9 C6         -3.2370   -3.8339   -1.1562 C.2       1 <0>        -0.1522
     10 C7         -2.1811   -4.1026   -2.1987 C.3       1 <0>         0.0923
     11 H1         -1.6010   -4.9786   -1.9086 H         1 <0>         0.1401
     12 N2         -1.2905   -2.9412   -2.3193 N.3       1 <0>        -0.4223
     13 C8         -2.8440   -4.3595   -3.5275 C.2       1 <0>         0.5301
     14 O3         -2.6018   -3.6420   -4.4748 O.2       1 <0>        -0.5166
     15 N3         -3.7061   -5.3866   -3.6631 N.am      1 <0>        -0.5181
     16 N4         -4.3225   -5.6254   -4.8983 N.am      1 <0>        -0.5263
     17 C9         -5.1846   -6.6524   -5.0339 C.2       1 <0>         0.5138
     18 O4         -5.4268   -7.3699   -4.0866 O.2       1 <0>        -0.5218
     19 C10        -5.8475   -6.9093   -6.3627 C.3       1 <0>        -0.0496
     20 C11        -6.7571   -8.1053   -6.2474 C.2       1 <0>        -0.1651
     21 C12        -8.1439   -8.1031   -5.7755 C.ar      1 <0>        -0.0890
     22 C13        -9.0122   -7.1097   -5.3197 C.ar      1 <0>        -0.0722
     23 C14       -10.2831   -7.4406   -4.9417 C.ar      1 <0>        -0.1434
     24 C15       -10.7177   -8.7571   -5.0069 C.ar      1 <0>        -0.0995
     25 C16        -9.8773   -9.7534   -5.4537 C.ar      1 <0>        -0.1286
     26 C17        -8.5798   -9.4392   -5.8439 C.ar      1 <0>         0.0951
     27 N5         -7.5268  -10.1859   -6.3230 N.pl3     1 <0>        -0.5926
     28 C18        -6.4519   -9.3739   -6.5630 C.2       1 <0>         0.0746
     29 H2          1.0053    1.8021    0.0021 H         1 <0>         0.0407
     30 H3         -0.5445    1.7859   -0.8732 H         1 <0>         0.0372
     31 H4         -0.5275    1.7763    0.9067 H         1 <0>         0.0849
     32 H5          0.1385   -0.2506   -2.0447 H         1 <0>         0.0514
     33 H6          1.6883   -0.2344   -1.1694 H         1 <0>         0.0637
     34 H7          1.1847   -2.5275   -1.8631 H         1 <0>         0.1082
     35 H8          1.0473   -2.4117   -0.0922 H         1 <0>         0.0971
     36 H9         -3.6375   -2.8819    0.6813 H         1 <0>         0.1583
     37 H10        -4.2356   -4.2297   -1.2691 H         1 <0>         0.1433
     38 H11        -1.7546   -2.1713   -2.7776 H         1 <0>         0.3574
     39 H12        -3.8999   -5.9604   -2.9054 H         1 <0>         0.4340
     40 H13        -4.1287   -5.0515   -5.6560 H         1 <0>         0.4332
     41 H14        -6.4312   -6.0356   -6.6524 H         1 <0>         0.1081
     42 H15        -5.0855   -7.1037   -7.1174 H         1 <0>         0.1087
     43 H16        -8.6806   -6.0833   -5.2656 H         1 <0>         0.1174
     44 H17       -10.9545   -6.6717   -4.5891 H         1 <0>         0.1220
     45 H18       -11.7248   -9.0031   -4.7040 H         1 <0>         0.1253
     46 H19       -10.2248  -10.7749   -5.5005 H         1 <0>         0.1200
     47 H20        -5.4983   -9.7050   -6.9469 H         1 <0>         0.1704
     48 H21        -7.5455  -11.1442   -6.4720 H         1 <0>         0.4177
@<TRIPOS>BOND
     1    1    2 1
     2    1   29 1
     3    1   30 1
     4    1   31 1
     5    2    3 1
     6    3    4 1
     7    3   32 1
     8    3   33 1
     9    4    5 1
    10    4   34 1
    11    4   35 1
    12    5   12 1
    13    5    6 am
    14    6    7 2
    15    6    8 1
    16    8    9 2
    17    8   36 1
    18    9   10 1
    19    9   37 1
    20   10   11 1
    21   10   12 1
    22   10   13 1
    23   12   38 1
    24   13   14 2
    25   13   15 am
    26   15   16 1
    27   15   39 1
    28   16   17 am
    29   16   40 1
    30   17   18 2
    31   17   19 1
    32   19   41 1
    33   19   42 1
    34   19   20 1
    35   20   21 1
    36   20   28 2
    37   21   22 ar
    38   21   26 ar
    39   22   23 ar
    40   22   43 1
    41   23   24 ar
    42   23   44 1
    43   24   25 ar
    44   24   45 1
    45   25   26 ar
    46   25   46 1
    47   26   27 1
    48   27   48 1
    49   27   28 1
    50   28   47 1
@<TRIPOS>MOLECULE
ZINC47999719
   44    45     0     0     0
SMALL
USER_CHARGES

@<TRIPOS>ATOM
      1 C1         -0.0187    1.5258    0.0104 C.3       1 <0>        -0.1474
      2 C2          0.0021   -0.0041    0.0020 C.3       1 <0>        -0.1275
      3 C3         -1.4333   -0.5336    0.0129 C.3       1 <0>         0.1938
      4 H1         -1.9701   -0.1109    0.8621 H         1 <0>         0.1103
      5 C4         -1.4136   -2.0361    0.1285 C.ar      1 <0>        -0.1117
      6 C5         -1.4784   -2.8179   -1.0088 C.ar      1 <0>        -0.0844
      7 C6         -1.4609   -4.1962   -0.9035 C.ar      1 <0>        -0.1337
      8 C7         -1.3779   -4.7960    0.3398 C.ar      1 <0>        -0.0780
      9 C8         -1.3124   -4.0188    1.4798 C.ar      1 <0>        -0.1842
     10 C9         -1.3245   -2.6352    1.3764 C.ar      1 <0>         0.1188
     11 O1         -1.2545   -1.8683    2.4961 O.3       1 <0>        -0.3172
     12 C10        -1.1646   -2.5533    3.7470 C.3       1 <0>         0.4119
     13 F1         -2.2919   -3.3642    3.9167 F         1 <0>        -0.1968
     14 F2         -0.0127   -3.3469    3.7623 F         1 <0>        -0.1966
     15 N1         -2.1054   -0.1483   -1.2305 N.am      1 <0>        -0.6911
     16 C11        -2.6898    1.0618   -1.3336 C.2       1 <0>         0.5181
     17 O2         -2.6593    1.8322   -0.3963 O.2       1 <0>        -0.4929
     18 C12        -3.3748    1.4544   -2.6007 C.2       1 <0>         0.4995
     19 O3         -3.4053    0.6839   -3.5381 O.2       1 <0>        -0.4816
     20 N2         -3.9592    2.6645   -2.7038 N.am      1 <0>        -0.5819
     21 C13        -4.5941    3.0285   -3.8784 C.2       1 <0>         0.0723
     22 C14        -5.2390    4.2239   -4.1649 C.2       1 <0>        -0.2605
     23 C15        -5.8227    4.3437   -5.4805 C.2       1 <0>        -0.1023
     24 C16        -5.6753    3.2758   -6.2876 C.2       1 <0>        -0.2479
     25 S1         -4.7548    2.1291   -5.2856 S.3       1 <0>         0.2904
     26 C17        -5.3237    5.3091   -3.1819 C.2       1 <0>         0.5874
     27 O4         -4.8208    5.1743   -2.0819 O.2       1 <0>        -0.5571
     28 N3         -5.9584    6.4555   -3.4969 N.am      1 <0>        -0.8476
     29 H2          1.0039    1.9031    0.0027 H         1 <0>         0.0535
     30 H3         -0.5459    1.8868   -0.8726 H         1 <0>         0.0509
     31 H4         -0.5289    1.8773    0.9072 H         1 <0>         0.0645
     32 H5          0.5123   -0.3556   -0.8948 H         1 <0>         0.0685
     33 H6          0.5293   -0.3651    0.8851 H         1 <0>         0.0800
     34 H7         -1.5433   -2.3519   -1.9810 H         1 <0>         0.1317
     35 H8         -1.5124   -4.8057   -1.7936 H         1 <0>         0.1325
     36 H9         -1.3647   -5.8729    0.4196 H         1 <0>         0.1326
     37 H10        -1.2476   -4.4876    2.4506 H         1 <0>         0.1373
     38 H11        -1.1153   -1.8256    4.5570 H         1 <0>         0.1848
     39 H12        -2.1298   -0.7641   -1.9796 H         1 <0>         0.4122
     40 H13        -3.9348    3.2803   -1.9547 H         1 <0>         0.4454
     41 H14        -6.3452    5.2343   -5.7972 H         1 <0>         0.1450
     42 H15        -6.0272    3.1479   -7.3006 H         1 <0>         0.1919
     43 H16        -6.3592    6.5629   -4.3737 H         1 <0>         0.4016
     44 H17        -6.0144    7.1733   -2.8468 H         1 <0>         0.4057
@<TRIPOS>BOND
     1    1    2 1
     2    1   29 1
     3    1   30 1
     4    1   31 1
     5    2    3 1
     6    2   32 1
     7    2   33 1
     8    3    4 1
     9    3    5 1
    10    3   15 1
    11    5   10 ar
    12    5    6 ar
    13    6    7 ar
    14    6   34 1
    15    7    8 ar
    16    7   35 1
    17    8    9 ar
    18    8   36 1
    19    9   10 ar
    20    9   37 1
    21   10   11 1
    22   11   12 1
    23   12   13 1
    24   12   14 1
    25   12   38 1
    26   15   16 am
    27   15   39 1
    28   16   17 2
    29   16   18 1
    30   18   19 2
    31   18   20 am
    32   20   21 1
    33   20   40 1
    34   21   25 1
    35   21   22 2
    36   22   23 1
    37   22   26 1
    38   23   24 2
    39   23   41 1
    40   24   25 1
    41   24   42 1
    42   26   27 2
    43   26   28 am
    44   28   43 1
    45   28   44 1
@<TRIPOS>MOLECULE
ZINC59332334
   41    42     0     0     0
SMALL
USER_CHARGES

@<TRIPOS>ATOM
      1 C1         -0.0187    1.5258    0.0104 C.3       1 <0>        -0.1422
      2 C2          0.0021   -0.0041    0.0020 C.3       1 <0>        -0.0520
      3 C3         -1.4117   -0.5257    0.0127 C.2       1 <0>         0.1034
      4 C4         -2.1086   -0.7874    1.1866 C.2       1 <0>        -0.2443
      5 S1         -3.6589   -1.3567    0.5090 S.3       1 <0>         0.3136
      6 N1         -3.2918   -1.2151   -1.0640 N.2       1 <0>        -0.1805
      7 N2         -2.0880   -0.7649   -1.0836 N.2       1 <0>        -0.2643
      8 C5         -1.6880   -0.6378    2.5890 C.2       1 <0>         0.6099
      9 O1         -0.5730   -0.2275    2.8490 O.2       1 <0>        -0.5024
     10 N3         -2.5385   -0.9555    3.5851 N.am      1 <0>        -0.7171
     11 C6         -2.1198   -0.8065    4.9811 C.3       1 <0>         0.1594
     12 C7         -3.2459   -1.2256    5.8907 C.ar      1 <0>        -0.0883
     13 C8         -4.1791   -0.2924    6.3063 C.ar      1 <0>        -0.1053
     14 C9         -5.2124   -0.6694    7.1390 C.ar      1 <0>        -0.0578
     15 C10        -5.3151   -1.9955    7.5622 C.ar      1 <0>        -0.1244
     16 C11        -4.3704   -2.9318    7.1392 C.ar      1 <0>        -0.0850
     17 C12        -3.3452   -2.5429    6.3020 C.ar      1 <0>        -0.1044
     18 C13        -6.4196   -2.4065    8.4549 C.2       1 <0>         0.5618
     19 O2         -7.2407   -1.5889    8.8220 O.2       1 <0>        -0.5319
     20 N4         -6.5160   -3.6878    8.8618 N.am      1 <0>        -0.7161
     21 C14        -7.6105   -4.0950    9.7464 C.3       1 <0>         0.0974
     22 C15        -7.4903   -5.5663   10.0497 C.2       1 <0>         0.5143
     23 O3         -6.5801   -6.2112    9.5737 O.2       1 <0>        -0.5400
     24 N5         -8.3943   -6.1655   10.8498 N.am      1 <0>        -0.8468
     25 H1          1.0039    1.9031    0.0027 H         1 <0>         0.0713
     26 H2         -0.5459    1.8868   -0.8726 H         1 <0>         0.0569
     27 H3         -0.5289    1.8773    0.9072 H         1 <0>         0.0581
     28 H4          0.5123   -0.3556   -0.8948 H         1 <0>         0.0900
     29 H5          0.5293   -0.3651    0.8851 H         1 <0>         0.1060
     30 H6         -3.4277   -1.2827    3.3778 H         1 <0>         0.4036
     31 H7         -1.2488   -1.4345    5.1682 H         1 <0>         0.0882
     32 H8         -1.8648    0.2354    5.1748 H         1 <0>         0.0884
     33 H9         -4.0982    0.7334    5.9784 H         1 <0>         0.1353
     34 H10        -5.9400    0.0599    7.4630 H         1 <0>         0.1414
     35 H11        -4.4442   -3.9595    7.4631 H         1 <0>         0.1319
     36 H12        -2.6160   -3.2673    5.9704 H         1 <0>         0.1346
     37 H13        -5.8608   -4.3403    8.5689 H         1 <0>         0.4126
     38 H14        -7.5574   -3.5271   10.6753 H         1 <0>         0.1047
     39 H15        -8.5648   -3.9018    9.2565 H         1 <0>         0.1046
     40 H16        -9.1223   -5.6497   11.2305 H         1 <0>         0.4068
     41 H17        -8.3170   -7.1125   11.0450 H         1 <0>         0.4088
@<TRIPOS>BOND
     1    1    2 1
     2    1   25 1
     3    1   26 1
     4    1   27 1
     5    2    3 1
     6    2   28 1
     7    2   29 1
     8    3    7 1
     9    3    4 2
    10    4    5 1
    11    4    8 1
    12    5    6 1
    13    6    7 2
    14    8    9 2
    15    8   10 am
    16   10   11 1
    17   10   30 1
    18   11   12 1
    19   11   31 1
    20   11   32 1
    21   12   17 ar
    22   12   13 ar
    23   13   14 ar
    24   13   33 1
    25   14   15 ar
    26   14   34 1
    27   15   16 ar
    28   15   18 1
    29   16   17 ar
    30   16   35 1
    31   17   36 1
    32   18   19 2
    33   18   20 am
    34   20   21 1
    35   20   37 1
    36   21   22 1
    37   21   38 1
    38   21   39 1
    39   22   23 2
    40   22   24 am
    41   24   40 1
    42   24   41 1
@<TRIPOS>MOLECULE
ZINC65384275
   42    42     0     0     0
SMALL
USER_CHARGES

@<TRIPOS>ATOM
      1 C1         -0.0242    1.5226    0.0147 C.3       1 <0>        -0.1487
      2 C2         -0.0002   -0.0072    0.0096 C.3       1 <0>        -0.6306
      3 S1          0.8884   -0.6029    1.4746 S.o2      1 <0>         2.6138
      4 O1          2.2661   -0.2677    1.3812 O.2       1 <0>        -0.9520
      5 O2          0.1484   -0.3051    2.6506 O.2       1 <0>        -0.9520
      6 N1          0.8462   -2.2541    1.3557 N.pl3     1 <0>        -1.1177
      7 C3          1.5383   -2.9270    0.2537 C.3       1 <0>         0.1017
      8 C4          1.6674   -4.4189    0.5677 C.3       1 <0>         0.1325
      9 N2          2.3595   -5.0918   -0.5343 N.am      1 <0>        -0.7428
     10 C5          2.5874   -6.4189   -0.4766 C.2       1 <0>         0.7119
     11 O3          2.2185   -7.0577    0.4900 O.2       1 <0>        -0.5857
     12 N3          3.2241   -7.0380   -1.4904 N.am      1 <0>        -0.7362
     13 C6          3.4717   -8.4806   -1.4278 C.3       1 <0>         0.1232
     14 C7          4.1930   -8.9211   -2.6755 C.2       1 <0>         0.5113
     15 O4          4.4727   -8.1099   -3.5327 O.2       1 <0>        -0.5131
     16 N4          4.5274  -10.2164   -2.8388 N.am      1 <0>        -0.6670
     17 C8          5.1097  -10.6429   -4.0374 C.ar      1 <0>         0.1695
     18 C9          4.8126  -11.9008   -4.5464 C.ar      1 <0>        -0.1522
     19 C10         5.3879  -12.3199   -5.7298 C.ar      1 <0>        -0.0704
     20 C11         6.2600  -11.4893   -6.4091 C.ar      1 <0>        -0.1661
     21 C12         6.5590  -10.2345   -5.9052 C.ar      1 <0>         0.1184
     22 C13         5.9809   -9.8075   -4.7230 C.ar      1 <0>        -0.1582
     23 F1          7.4118   -9.4252   -6.5708 F         1 <0>        -0.1345
     24 H1          0.9975    1.9020   -0.0008 H         1 <0>         0.0736
     25 H2         -0.5581    1.8806   -0.8656 H         1 <0>         0.0833
     26 H3         -0.5290    1.8751    0.9142 H         1 <0>         0.0737
     27 H4         -1.0219   -0.3866    0.0252 H         1 <0>         0.1336
     28 H5          0.5046   -0.3597   -0.8898 H         1 <0>         0.1303
     29 H6          0.3633   -2.7757    2.0157 H         1 <0>         0.4222
     30 H7          0.9685   -2.7974   -0.6664 H         1 <0>         0.0731
     31 H8          2.5312   -2.4945    0.1301 H         1 <0>         0.0900
     32 H9          2.2373   -4.5485    1.4878 H         1 <0>         0.0798
     33 H10         0.6746   -4.8514    0.6913 H         1 <0>         0.0779
     34 H11         2.6538   -4.5822   -1.3054 H         1 <0>         0.4011
     35 H12         3.5183   -6.5284   -2.2615 H         1 <0>         0.4097
     36 H13         4.0844   -8.7065   -0.5550 H         1 <0>         0.1057
     37 H14         2.5217   -9.0094   -1.3515 H         1 <0>         0.1060
     38 H15         4.3643  -10.8531   -2.1254 H         1 <0>         0.4195
     39 H16         4.1322  -12.5509   -4.0166 H         1 <0>         0.1353
     40 H17         5.1566  -13.2980   -6.1252 H         1 <0>         0.1399
     41 H18         6.7091  -11.8199   -7.3340 H         1 <0>         0.1385
     42 H19         6.2106   -8.8274   -4.3317 H         1 <0>         0.1515
@<TRIPOS>BOND
     1    1    2 1
     2    1   24 1
     3    1   25 1
     4    1   26 1
     5    2    3 1
     6    2   27 1
     7    2   28 1
     8    3    4 2
     9    3    5 2
    10    3    6 1
    11    6    7 1
    12    6   29 1
    13    7    8 1
    14    7   30 1
    15    7   31 1
    16    8    9 1
    17    8   32 1
    18    8   33 1
    19    9   10 am
    20    9   34 1
    21   10   11 2
    22   10   12 am
    23   12   13 1
    24   12   35 1
    25   13   14 1
    26   13   36 1
    27   13   37 1
    28   14   15 2
    29   14   16 am
    30   16   17 1
    31   16   38 1
    32   17   22 ar
    33   17   18 ar
    34   18   19 ar
    35   18   39 1
    36   19   20 ar
    37   19   40 1
    38   20   21 ar
    39   20   41 1
    40   21   22 ar
    41   21   23 1
    42   22   42 1
@<TRIPOS>MOLECULE
ZINC03348426
   40    42     0     0     0
SMALL
USER_CHARGES
3-(2-furylmethylcarbamoylcarbamoylmethyl)-4-oxo-phthalazine-1-carboxylic acid
@<TRIPOS>ATOM
      1 C1          2.3886    1.4027   -0.0132 C.ar      1 <0>        -0.0998
      2 C2          1.1757    2.0789    0.0020 C.ar      1 <0>        -0.1289
      3 C3         -0.0168    1.3871    0.0097 C.ar      1 <0>        -0.0634
      4 C4          0.0021   -0.0041    0.0020 C.ar      1 <0>        -0.1458
      5 C5          1.2370   -0.6928   -0.0135 C.ar      1 <0>        -0.0318
      6 C6          2.4283    0.0244   -0.0210 C.ar      1 <0>        -0.0881
      7 C7          1.1920   -2.1641   -0.0215 C.2       1 <0>         0.0884
      8 N1          0.0284   -2.7688   -0.0140 N.2       1 <0>        -0.2033
      9 N2         -1.0980   -2.1623    0.0000 N.am      1 <0>        -0.3618
     10 C8         -1.2207   -0.8190    0.0088 C.2       1 <0>         0.5178
     11 O1         -2.3190   -0.2941    0.0225 O.2       1 <0>        -0.5310
     12 C9         -2.3202   -2.9701    0.0068 C.3       1 <0>         0.1069
     13 C10        -2.7525   -3.2389   -1.4115 C.2       1 <0>         0.5059
     14 O2         -2.1040   -2.7993   -2.3366 O.2       1 <0>        -0.4436
     15 N3         -3.8603   -3.9681   -1.6516 N.am      1 <0>        -0.6873
     16 C11        -4.2470   -4.2086   -2.9201 C.2       1 <0>         0.6985
     17 O3         -3.5967   -3.7678   -3.8476 O.2       1 <0>        -0.5243
     18 N4         -5.3547   -4.9378   -3.1602 N.am      1 <0>        -0.7381
     19 C12        -5.7750   -5.1992   -4.5391 C.3       1 <0>         0.2194
     20 C13        -7.0322   -6.0301   -4.5320 C.2       1 <0>        -0.0376
     21 C14        -8.2901   -5.5536   -4.5175 C.2       1 <0>        -0.1813
     22 C15        -9.1525   -6.6739   -4.5158 C.2       1 <0>        -0.2191
     23 C16        -8.3701   -7.7680   -4.5294 C.2       1 <0>        -0.0273
     24 O4         -7.0869   -7.3719   -4.5450 O.3       1 <0>        -0.1699
     25 C17         2.4408   -2.9490   -0.0381 C.2       1 <0>         0.5246
     26 O5          3.5151   -2.3813   -0.0453 O.co2     1 <0>        -0.6134
     27 H1          3.3118    1.9631   -0.0190 H         1 <0>         0.1295
     28 H2          1.1666    3.1589    0.0079 H         1 <0>         0.1272
     29 H3         -0.9563    1.9197    0.0170 H         1 <0>         0.1337
     30 H4          3.3760   -0.4934   -0.0324 H         1 <0>         0.1798
     31 H5         -2.1278   -3.9158    0.5135 H         1 <0>         0.1372
     32 H6         -3.1091   -2.4309    0.5312 H         1 <0>         0.1339
     33 H7         -4.3792   -4.3199   -0.9115 H         1 <0>         0.4107
     34 H8         -5.8737   -5.2896   -2.4200 H         1 <0>         0.4013
     35 H9         -5.9674   -4.2534   -5.0457 H         1 <0>         0.1023
     36 H10        -4.9861   -5.7383   -5.0634 H         1 <0>         0.0889
     37 H11        -8.5846   -4.5146   -4.5083 H         1 <0>         0.1519
     38 H12       -10.2323   -6.6549   -4.5053 H         1 <0>         0.1508
     39 H13        -8.7154   -8.7913   -4.5326 H         1 <0>         0.2052
     40 O6          2.3903   -4.2956   -0.0453 O.co2     1 <0>        -0.7179
@<TRIPOS>BOND
     1    1    6 ar
     2    1    2 ar
     3    1   27 1
     4    2    3 ar
     5    2   28 1
     6    3    4 ar
     7    3   29 1
     8    4   10 1
     9    4    5 ar
    10    5    6 ar
    11    5    7 1
    12    6   30 1
    13    7    8 2
    14    7   25 1
    15    8    9 1
    16    9   10 am
    17    9   12 1
    18   10   11 2
    19   12   13 1
    20   12   31 1
    21   12   32 1
    22   13   14 2
    23   13   15 am
    24   15   16 am
    25   15   33 1
    26   16   17 2
    27   16   18 am
    28   18   19 1
    29   18   34 1
    30   19   20 1
    31   19   35 1
    32   19   36 1
    33   20   24 1
    34   20   21 2
    35   21   22 1
    36   21   37 1
    37   22   23 2
    38   22   38 1
    39   23   24 1
    40   23   39 1
    41   25   26 2
    42   25   40 1
@<TRIPOS>MOLECULE
ZINC13778355
   38    40     0     0     0
SMALL
USER_CHARGES
6-oxo-N-[4-(pyrimidin-2-ylsulfamoyl)phenyl]-1H-pyridine-3-carboxamide
@<TRIPOS>ATOM
      1 C1          0.1385    1.9121   -0.5318 C.ar      1 <0>        -0.3383
      2 C2          1.4067    2.4614   -0.4263 C.ar      1 <0>         0.1860
      3 N1          2.4510    1.6572   -0.3152 N.ar      1 <0>        -0.6094
      4 C3          2.2945    0.3416   -0.3032 C.ar      1 <0>         0.5834
      5 N2          1.0963   -0.2152   -0.4022 N.ar      1 <0>        -0.5512
      6 C4          0.0108    0.5320   -0.5164 C.ar      1 <0>         0.1762
      7 N3          3.4091   -0.4703   -0.1851 N.2       1 <0>        -1.0123
      8 S1          4.9212    0.1582   -0.4316 S.o2      1 <0>         2.6257
      9 O1          5.8421   -0.9021   -0.2145 O.2       1 <0>        -0.9969
     10 O2          4.8663    0.8813   -1.6536 O.2       1 <0>        -1.0219
     11 C5          5.2072    1.3422    0.8417 C.ar      1 <0>        -0.6632
     12 C6          4.8548    2.6649    0.6455 C.ar      1 <0>         0.0294
     13 C7          5.0732    3.5945    1.6433 C.ar      1 <0>        -0.1555
     14 C8          5.6570    3.2016    2.8407 C.ar      1 <0>         0.1780
     15 C9          6.0146    1.8733    3.0325 C.ar      1 <0>        -0.1796
     16 C10         5.7887    0.9477    2.0327 C.ar      1 <0>        -0.0109
     17 N4          5.8840    4.1413    3.8513 N.am      1 <0>        -0.6797
     18 C11         5.0307    5.1712    4.0178 C.2       1 <0>         0.5751
     19 O3          4.0133    5.2313    3.3543 O.2       1 <0>        -0.5223
     20 C12         5.3307    6.2249    5.0044 C.2       1 <0>        -0.2572
     21 C13         6.5137    6.1603    5.7800 C.2       1 <0>         0.0046
     22 C14         6.7651    7.1458    6.6825 C.2       1 <0>        -0.2442
     23 C15         5.8486    8.2044    6.8262 C.2       1 <0>         0.5188
     24 O4          6.0696    9.0907    7.6344 O.2       1 <0>        -0.5450
     25 N5          4.7308    8.2462    6.0786 N.am      1 <0>        -0.6107
     26 H1          4.0182    9.0753    6.2006 H         1 <0>         0.4509
     27 C16         4.4635    7.2848    5.1753 C.2       1 <0>         0.2202
     28 H2         -0.7308    2.5456   -0.6285 H         1 <0>         0.1219
     29 H3          1.5406    3.5330   -0.4354 H         1 <0>         0.1435
     30 H4         -0.9631    0.0724   -0.5971 H         1 <0>         0.1469
     31 H5          4.4046    2.9706   -0.2874 H         1 <0>         0.1459
     32 H6          4.7937    4.6266    1.4913 H         1 <0>         0.1310
     33 H7          6.4685    1.5645    3.9626 H         1 <0>         0.1230
     34 H8          6.0662   -0.0855    2.1813 H         1 <0>         0.1347
     35 H9          6.7589    4.0398    4.5102 H         1 <0>         0.4278
     36 H10         7.2061    5.3408    5.6562 H         1 <0>         0.1381
     37 H11         7.6615    7.1167    7.2842 H         1 <0>         0.1546
     38 H12         3.5623    7.3413    4.5829 H         1 <0>         0.1824
@<TRIPOS>BOND
     1    1    6 ar
     2    1    2 ar
     3    1   28 1
     4    2    3 ar
     5    2   29 1
     6    3    4 ar
     7    4    5 ar
     8    4    7 1
     9    5    6 ar
    10    6   30 1
    11    7    8 1
    12    8    9 2
    13    8   10 2
    14    8   11 1
    15   11   16 ar
    16   11   12 ar
    17   12   13 ar
    18   12   31 1
    19   13   14 ar
    20   13   32 1
    21   14   15 ar
    22   14   17 1
    23   15   16 ar
    24   15   33 1
    25   16   34 1
    26   17   18 am
    27   17   35 1
    28   18   19 2
    29   18   20 1
    30   20   27 2
    31   20   21 1
    32   21   22 2
    33   21   36 1
    34   22   23 1
    35   22   37 1
    36   23   24 2
    37   23   25 am
    38   25   26 1
    39   25   27 1
    40   27   38 1
@<TRIPOS>MOLECULE
ZINC39862005
   33    34     0     0     0
SMALL
USER_CHARGES

@<TRIPOS>ATOM
      1 C1          0.0187    1.3591   -0.4983 C.ar      1 <0>        -0.1095
      2 C2          1.1747    2.0590   -0.2242 C.ar      1 <0>        -0.0856
      3 C3          2.4147    1.4169   -0.3118 C.ar      1 <0>        -0.0590
      4 C4          2.4713    0.0674   -0.6773 C.ar      1 <0>        -0.0939
      5 C5          1.3057   -0.6191   -0.9484 C.ar      1 <0>        -0.0296
      6 C6          0.0821    0.0247   -0.8592 C.ar      1 <0>        -0.0995
      7 Cl1         1.3722   -2.2934   -1.4022 Cl        1 <0>        -0.0610
      8 C7          3.6518    2.1563   -0.0217 C.2       1 <0>         0.0251
      9 C8          4.8324    1.4948    0.0659 C.2       1 <0>        -0.1863
     10 C9          6.2060    2.0294    0.1819 C.2       1 <0>         0.5456
     11 O1          6.4264    3.2257    0.2123 O.2       1 <0>        -0.4583
     12 N1          7.1827    1.1406    0.2514 N.am      1 <0>        -0.4854
     13 C10         6.9338   -0.1843    0.2179 C.2       1 <0>         0.2273
     14 S1          8.0523   -1.4781    0.2955 S.2       1 <0>        -0.2126
     15 S2          5.1553   -0.2633    0.0808 S.3       1 <0>         0.0076
     16 C11         8.5670    1.6060    0.3671 C.3       1 <0>         0.0652
     17 H1          8.5841    2.6958    0.3793 H         1 <0>         0.1138
     18 C12         9.1780    1.0718    1.6641 C.3       1 <0>        -0.1597
     19 C13         8.4561    1.6709    2.8435 C.2       1 <0>         0.5117
     20 O2          7.5429    2.4486    2.6643 O.2       1 <0>        -0.5372
     21 N2          8.8253    1.3425    4.0974 N.am      1 <0>        -0.8586
     22 C14         9.3655    1.1042   -0.8083 C.2       1 <0>         0.4954
     23 O3         10.3097    1.7531   -1.2255 O.co2     1 <0>        -0.6744
     24 O4          9.0675    0.0493   -1.3421 O.co2     1 <0>        -0.6401
     25 H2         -0.9393    1.8526   -0.4266 H         1 <0>         0.1376
     26 H3          1.1231    3.1005    0.0569 H         1 <0>         0.1384
     27 H4          3.4247   -0.4353   -0.7474 H         1 <0>         0.1476
     28 H5         -0.8271   -0.5178   -1.0723 H         1 <0>         0.1365
     29 H6          3.6203    3.2263    0.1217 H         1 <0>         0.1612
     30 H7          9.0806   -0.0135    1.6916 H         1 <0>         0.1275
     31 H8         10.2328    1.3432    1.7076 H         1 <0>         0.1135
     32 H9          9.5557    0.7205    4.2407 H         1 <0>         0.4008
     33 H10         8.3607    1.7282    4.8565 H         1 <0>         0.3957
@<TRIPOS>BOND
     1    1    6 ar
     2    1    2 ar
     3    1   25 1
     4    2    3 ar
     5    2   26 1
     6    3    4 ar
     7    3    8 1
     8    4    5 ar
     9    4   27 1
    10    5    6 ar
    11    5    7 1
    12    6   28 1
    13    8    9 2
    14    8   29 1
    15    9   15 1
    16    9   10 1
    17   10   11 2
    18   10   12 am
    19   12   13 1
    20   12   16 1
    21   13   14 2
    22   13   15 1
    23   16   17 1
    24   16   18 1
    25   16   22 1
    26   18   19 1
    27   18   30 1
    28   18   31 1
    29   19   20 2
    30   19   21 am
    31   21   32 1
    32   21   33 1
    33   22   23 2
    34   22   24 1
@<TRIPOS>MOLECULE
ZINC02397602
   33    34     0     0     0
SMALL
USER_CHARGES

@<TRIPOS>ATOM
      1 C1         -0.0167    1.3781    0.0096 C.ar      1 <0>        -0.0691
      2 C2          1.1709    2.0855    0.0021 C.ar      1 <0>        -0.1487
      3 C3          2.3773    1.4107   -0.0130 C.ar      1 <0>        -0.0255
      4 C4          2.3960    0.0285   -0.0201 C.ar      1 <0>        -0.6611
      5 C5          1.2084   -0.6789   -0.0117 C.ar      1 <0>         0.0018
      6 C6          0.0021   -0.0041    0.0020 C.ar      1 <0>        -0.1426
      7 S1          3.9337   -0.8316   -0.0405 S.o2      1 <0>         2.7256
      8 O1          3.6744   -2.1140   -0.5951 O.2       1 <0>        -0.9495
      9 O2          4.8903    0.0598   -0.5970 O.2       1 <0>        -0.9745
     10 N1          4.3776   -1.0785    1.5357 N.pl3     1 <0>        -0.9766
     11 N2          3.5485   -1.8180    2.3893 N.2       1 <0>        -0.3392
     12 C7          3.8968   -2.0117    3.6259 C.2       1 <0>         0.4824
     13 S2          2.8541   -2.9417    4.6994 S.3       1 <0>        -0.7440
     14 N3          5.0926   -1.4850    4.1023 N.am      1 <0>        -0.6875
     15 C8          5.4539   -1.6859    5.3851 C.2       1 <0>         0.5375
     16 O3          4.7345   -2.3276    6.1258 O.2       1 <0>        -0.4226
     17 C9          6.7246   -1.1262    5.8913 C.ar      1 <0>        -0.1763
     18 C10         7.1142   -1.3327    7.2205 C.ar      1 <0>        -0.0202
     19 C11         8.3132   -0.7879    7.6445 C.ar      1 <0>        -0.1782
     20 C12         9.0815   -0.0635    6.7505 C.ar      1 <0>         0.1088
     21 N4          8.6889    0.1154    5.5038 N.ar      1 <0>        -0.4876
     22 C13         7.5592   -0.3879    5.0513 C.ar      1 <0>         0.1234
     23 H1         -0.9591    1.9053    0.0259 H         1 <0>         0.1262
     24 H2          1.1563    3.1654    0.0076 H         1 <0>         0.1276
     25 H3          3.3051    1.9634   -0.0196 H         1 <0>         0.1351
     26 H4          1.2231   -1.7588   -0.0176 H         1 <0>         0.1443
     27 H5         -0.9258   -0.5567    0.0082 H         1 <0>         0.1311
     28 H6          5.6666   -0.9730    3.5113 H         1 <0>         0.3824
     29 H7          6.4946   -1.9023    7.8973 H         1 <0>         0.1490
     30 H8          8.6457   -0.9264    8.6626 H         1 <0>         0.1406
     31 H9         10.0179    0.3629    7.0789 H         1 <0>         0.1581
     32 H10         7.2740   -0.2238    4.0227 H         1 <0>         0.1529
     33 H11         5.2116   -0.7112    1.8679 H         1 <0>         0.3764
@<TRIPOS>BOND
     1    1    6 ar
     2    1    2 ar
     3    1   23 1
     4    2    3 ar
     5    2   24 1
     6    3    4 ar
     7    3   25 1
     8    4    5 ar
     9    4    7 1
    10    5    6 ar
    11    5   26 1
    12    6   27 1
    13    7    8 2
    14    7    9 2
    15    7   10 1
    16   10   11 1
    17   10   33 1
    18   11   12 2
    19   12   13 1
    20   12   14 1
    21   14   15 am
    22   14   28 1
    23   15   16 2
    24   15   17 1
    25   17   22 ar
    26   17   18 ar
    27   18   19 ar
    28   18   29 1
    29   19   20 ar
    30   19   30 1
    31   20   21 ar
    32   20   31 1
    33   21   22 ar
    34   22   32 1
@<TRIPOS>MOLECULE
ZINC63156168
   35    36     0     0     0
SMALL
USER_CHARGES

@<TRIPOS>ATOM
      1 C1         -0.0168    1.3848    0.0097 C.ar      1 <0>        -0.1950
      2 C2          1.1706    2.0906    0.0021 C.ar      1 <0>         0.0228
      3 C3          2.3775    1.4166   -0.0130 C.ar      1 <0>        -0.7704
      4 C4          2.4004    0.0325   -0.0207 C.ar      1 <0>         0.1059
      5 C5          1.2159   -0.6793   -0.0137 C.ar      1 <0>        -0.2584
      6 C6          0.0021   -0.0041    0.0020 C.ar      1 <0>         0.3398
      7 N1         -1.1970   -0.7202    0.0101 N.2       1 <0>        -1.0844
      8 S1         -1.1726   -2.3760    0.0010 S.o2      1 <0>         2.5365
      9 O1         -0.5768   -2.7230   -1.2415 O.2       1 <0>        -0.9993
     10 O2         -0.5522   -2.7363    1.2276 O.2       1 <0>        -1.0210
     11 C7         -2.9186   -2.8681    0.0157 C.3       1 <0>        -0.6020
     12 C8         -3.0182   -4.3948    0.0085 C.3       1 <0>         0.0874
     13 H1         -2.5132   -4.8104    0.8804 H         1 <0>         0.0828
     14 C9         -4.5031   -4.8367   -0.0144 C.3       1 <0>        -0.1429
     15 C10        -4.3813   -6.2468   -0.6538 C.3       1 <0>        -0.1574
     16 C11        -3.2074   -6.0595   -1.6388 C.3       1 <0>         0.0480
     17 O3         -2.4480   -4.9260   -1.1982 O.3       1 <0>        -0.3688
     18 Cl1         3.9184   -0.8097   -0.0397 Cl        1 <0>        -0.0755
     19 S2          3.8896    2.3211   -0.0232 S.o2      1 <0>         2.7057
     20 O4          4.6879    1.7659   -1.0594 O.2       1 <0>        -0.9682
     21 O5          3.5395    3.6978    0.0142 O.2       1 <0>        -0.9846
     22 N2          4.6668    1.9915    1.4014 N.pl3     1 <0>        -1.2525
     23 H2         -0.9590    1.9124    0.0260 H         1 <0>         0.1285
     24 H3          1.1560    3.1705    0.0077 H         1 <0>         0.1373
     25 H4          1.2339   -1.7591   -0.0200 H         1 <0>         0.1220
     26 H5         -3.3988   -2.4769    0.9126 H         1 <0>         0.1343
     27 H6         -3.4164   -2.4673   -0.8673 H         1 <0>         0.1302
     28 H7         -4.9107   -4.8969    0.9947 H         1 <0>         0.0859
     29 H8         -5.1011   -4.1727   -0.6386 H         1 <0>         0.0832
     30 H9         -4.1389   -6.9952    0.1007 H         1 <0>         0.0777
     31 H10        -5.2952   -6.5120   -1.1854 H         1 <0>         0.0830
     32 H11        -2.5770   -6.9488   -1.6362 H         1 <0>         0.0700
     33 H12        -3.5921   -5.8805   -2.6428 H         1 <0>         0.0711
     34 H13         4.2619    1.3918    2.0474 H         1 <0>         0.4154
     35 H14         5.5271    2.3981    1.5899 H         1 <0>         0.4128
@<TRIPOS>BOND
     1    1    6 ar
     2    1    2 ar
     3    1   23 1
     4    2    3 ar
     5    2   24 1
     6    3    4 ar
     7    3   19 1
     8    4    5 ar
     9    4   18 1
    10    5    6 ar
    11    5   25 1
    12    6    7 1
    13    7    8 1
    14    8    9 2
    15    8   10 2
    16    8   11 1
    17   11   12 1
    18   11   26 1
    19   11   27 1
    20   12   13 1
    21   12   17 1
    22   12   14 1
    23   14   15 1
    24   14   28 1
    25   14   29 1
    26   15   16 1
    27   15   30 1
    28   15   31 1
    29   16   17 1
    30   16   32 1
    31   16   33 1
    32   19   20 2
    33   19   21 2
    34   19   22 1
    35   22   34 1
    36   22   35 1
@<TRIPOS>MOLECULE
ZINC01676162
   34    34     0     0     0
SMALL
USER_CHARGES
5-[2-[bis(2-hydroxyethyl)amino]acetyl]-1H-pyrimidine-2,4-dione
@<TRIPOS>ATOM
      1 C1          0.9466    2.4661   -0.5470 C.2       1 <0>         0.3036
      2 C2          2.1106    1.7186   -0.4622 C.2       1 <0>        -0.3815
      3 C3          1.9955    0.2502   -0.5134 C.2       1 <0>         0.5742
      4 O1          2.9847   -0.4544   -0.4428 O.2       1 <0>        -0.5102
      5 N1          0.7672   -0.2950   -0.6399 N.am      1 <0>        -0.6531
      6 H1          0.6667   -1.2893   -0.6766 H         1 <0>         0.4516
      7 C4         -0.3216    0.4890   -0.7169 C.2       1 <0>         0.6953
      8 O2         -1.4137   -0.0323   -0.8308 O.2       1 <0>        -0.5003
      9 N2         -0.2438    1.8281   -0.6727 N.am      1 <0>        -0.6192
     10 H2         -1.0832    2.3682   -0.7339 H         1 <0>         0.4601
     11 C5          3.4139    2.3673   -0.3260 C.2       1 <0>         0.4213
     12 O3          3.4878    3.5781   -0.2857 O.2       1 <0>        -0.4387
     13 C6          4.6653    1.5326   -0.2356 C.3       1 <0>        -0.0213
     14 C7          5.8049    3.1403    1.1713 C.3       1 <0>        -0.0089
     15 C8          6.7753    4.3215    1.1077 C.3       1 <0>         0.0508
     16 O4          6.3330    5.2483    0.1140 O.3       1 <0>        -0.5697
     17 C9          7.0834    1.6564   -0.2521 C.3       1 <0>        -0.0058
     18 C10         7.3130    1.3328   -1.7298 C.3       1 <0>         0.0432
     19 O5          7.5231    2.5455   -2.4559 O.3       1 <0>        -0.5768
     20 H3          0.9870    3.5448   -0.5138 H         1 <0>         0.2057
     21 H4          4.6123    0.9383    0.5669 H         1 <0>         0.1467
     22 H5          4.7649    0.9284   -1.1373 H         1 <0>         0.1649
     23 H6          4.7960    3.5085    1.3573 H         1 <0>         0.1406
     24 H7          6.1013    2.4695    1.9777 H         1 <0>         0.1419
     25 H8          6.8083    4.8172    2.0779 H         1 <0>         0.0925
     26 H9          7.7709    3.9603    0.8501 H         1 <0>         0.0689
     27 H10         6.9022    6.0242    0.0187 H         1 <0>         0.4050
     28 H11         7.9155    2.2522    0.1229 H         1 <0>         0.1394
     29 H12         7.0152    0.7290    0.3166 H         1 <0>         0.1475
     30 H13         8.1898    0.6930   -1.8296 H         1 <0>         0.0977
     31 H14         6.4396    0.8171   -2.1288 H         1 <0>         0.0707
     32 H15         7.5997    2.4232   -3.4120 H         1 <0>         0.4080
     33 N3          5.8323    2.4333   -0.1264 N.4       1 <0>        -0.3911
     34 H16         5.7917    3.1250   -0.8840 H         1 <0>         0.4468
@<TRIPOS>BOND
     1    1    9 1
     2    1    2 2
     3    1   20 1
     4    2    3 1
     5    2   11 1
     6    3    4 2
     7    3    5 am
     8    5    6 1
     9    5    7 am
    10    7    8 2
    11    7    9 am
    12    9   10 1
    13   11   12 2
    14   11   13 1
    15   13   21 1
    16   13   22 1
    17   13   33 1
    18   14   15 1
    19   14   23 1
    20   14   24 1
    21   14   33 1
    22   15   16 1
    23   15   25 1
    24   15   26 1
    25   16   27 1
    26   17   18 1
    27   17   28 1
    28   17   29 1
    29   17   33 1
    30   18   19 1
    31   18   30 1
    32   18   31 1
    33   19   32 1
    34   33   34 1
@<TRIPOS>MOLECULE
ZINC36733367
   40    40     0     0     0
SMALL
USER_CHARGES

@<TRIPOS>ATOM
      1 C1         -0.0187    1.5258    0.0104 C.3       1 <0>        -0.1817
      2 C2          0.0021   -0.0041    0.0020 C.3       1 <0>         0.0763
      3 H1          0.5123   -0.3556   -0.8948 H         1 <0>         0.1548
      4 C3         -1.4117   -0.5257    0.0127 C.ar      1 <0>        -0.0936
      5 C4         -2.1228   -0.5709    1.1973 C.ar      1 <0>        -0.1439
      6 C5         -3.4197   -1.0494    1.2071 C.ar      1 <0>        -0.0029
      7 C6         -4.0056   -1.4822    0.0323 C.ar      1 <0>        -0.6571
      8 C7         -3.2949   -1.4361   -1.1525 C.ar      1 <0>        -0.0072
      9 C8         -1.9995   -0.9536   -1.1630 C.ar      1 <0>        -0.1072
     10 S1         -5.6582   -2.0932    0.0450 S.o2      1 <0>         2.6912
     11 O1         -5.7855   -2.9439   -1.0861 O.2       1 <0>        -0.9373
     12 O2         -5.9151   -2.5421    1.3685 O.2       1 <0>        -0.9419
     13 N1         -6.6599   -0.8012   -0.2194 N.pl3     1 <0>        -1.1126
     14 C9         -6.6171   -0.0912   -1.5001 C.3       1 <0>         0.1071
     15 C10        -7.8595    0.7913   -1.6358 C.3       1 <0>         0.1054
     16 N2         -7.8167    1.5014   -2.9165 N.pl3     1 <0>        -1.1208
     17 S2         -9.1815    2.2323   -3.5041 S.o2      1 <0>         2.6157
     18 O3         -8.7864    2.7903   -4.7497 O.2       1 <0>        -0.9515
     19 O4        -10.1846    1.2274   -3.4461 O.2       1 <0>        -0.9495
     20 C11        -9.5510    3.5531   -2.3168 C.3       1 <0>        -0.6728
     21 N3          0.7126   -0.4907    1.1921 N.4       1 <0>        -0.6372
     22 H2          1.0039    1.9031    0.0027 H         1 <0>         0.0912
     23 H3         -0.5459    1.8868   -0.8726 H         1 <0>         0.1098
     24 H4         -0.5289    1.8773    0.9072 H         1 <0>         0.0847
     25 H5         -1.6650   -0.2328    2.1152 H         1 <0>         0.1326
     26 H6         -3.9750   -1.0854    2.1327 H         1 <0>         0.1544
     27 H7         -3.7525   -1.7745   -2.0703 H         1 <0>         0.1562
     28 H8         -1.4455   -0.9141   -2.0892 H         1 <0>         0.1474
     29 H9         -7.2750   -0.5146    0.4737 H         1 <0>         0.4262
     30 H10        -5.7231    0.5312   -1.5408 H         1 <0>         0.0736
     31 H11        -6.5940   -0.8140   -2.3157 H         1 <0>         0.0956
     32 H12        -8.7534    0.1689   -1.5951 H         1 <0>         0.0964
     33 H13        -7.8826    1.5141   -0.8202 H         1 <0>         0.0755
     34 H14        -6.9888    1.5434   -3.4203 H         1 <0>         0.4199
     35 H15        -8.7106    4.2458   -2.2708 H         1 <0>         0.1291
     36 H16       -10.4457    4.0880   -2.6352 H         1 <0>         0.1338
     37 H17        -9.7185    3.1191   -1.3311 H         1 <0>         0.1269
     38 H18         0.2403   -0.1653    2.0223 H         1 <0>         0.4322
     39 H19         0.7262   -1.4996    1.1866 H         1 <0>         0.4400
     40 H20         1.6592   -0.1415    1.1850 H         1 <0>         0.4413
@<TRIPOS>BOND
     1    1    2 1
     2    1   22 1
     3    1   23 1
     4    1   24 1
     5    2    3 1
     6    2    4 1
     7    2   21 1
     8    4    9 ar
     9    4    5 ar
    10    5    6 ar
    11    5   25 1
    12    6    7 ar
    13    6   26 1
    14    7    8 ar
    15    7   10 1
    16    8    9 ar
    17    8   27 1
    18    9   28 1
    19   10   11 2
    20   10   12 2
    21   10   13 1
    22   13   14 1
    23   13   29 1
    24   14   15 1
    25   14   30 1
    26   14   31 1
    27   15   16 1
    28   15   32 1
    29   15   33 1
    30   16   17 1
    31   16   34 1
    32   17   18 2
    33   17   19 2
    34   17   20 1
    35   20   35 1
    36   20   36 1
    37   20   37 1
    38   21   38 1
    39   21   39 1
    40   21   40 1
@<TRIPOS>MOLECULE
ZINC40291857
   44    45     0     0     0
SMALL
USER_CHARGES

@<TRIPOS>ATOM
      1 C1          2.4195   -0.5301   -1.3705 C.3       1 <0>        -0.1360
      2 C2          1.1685   -0.9776   -0.6592 C.ar      1 <0>        -0.0154
      3 C3         -0.0834   -0.5715   -1.0917 C.ar      1 <0>         0.1647
      4 N1         -1.1664   -0.9732   -0.4558 N.ar      1 <0>        -0.2488
      5 N2         -1.1211   -1.7418    0.5703 N.ar      1 <0>        -0.2363
      6 C4          0.0227   -2.1892    1.0671 C.ar      1 <0>         0.4257
      7 C5          1.2344   -1.8207    0.4551 C.ar      1 <0>         0.0380
      8 C6          2.5327   -2.3031    0.9749 C.2       1 <0>         0.3922
      9 N3          3.1496   -1.6351    1.9054 N.2       1 <0>        -0.3806
     10 O1          4.3923   -2.0968    2.4029 O.3       1 <0>        -0.3964
     11 N4          3.0915   -3.4658    0.4709 N.pl3     1 <0>        -0.8524
     12 N5          0.0249   -3.0184    2.1783 N.pl3     1 <0>        -0.6474
     13 C7          0.0871   -2.4593    3.5372 C.3       1 <0>         0.1499
     14 C8         -1.0444   -3.0733    4.3684 C.3       1 <0>         0.0378
     15 N6         -0.9623   -4.5382    4.2950 N.3       1 <0>        -0.5247
     16 C9         -1.1615   -5.0148    2.9199 C.3       1 <0>         0.0338
     17 C10        -0.0409   -4.4801    2.0295 C.3       1 <0>         0.1474
     18 C11        -1.9212   -5.1659    5.2139 C.3       1 <0>         0.0543
     19 C12        -1.6400   -6.6675    5.2969 C.3       1 <0>         0.0785
     20 O2         -0.3562   -6.8798    5.8874 O.3       1 <0>        -0.5601
     21 C13        -0.2078    0.3319   -2.2914 C.3       1 <0>        -0.1512
     22 H1          2.6635   -1.2421   -2.1590 H         1 <0>         0.1151
     23 H2          2.2561    0.4547   -1.8082 H         1 <0>         0.1078
     24 H3          3.2436   -0.4794   -0.6590 H         1 <0>         0.1032
     25 H4          4.7736   -1.5350    3.0914 H         1 <0>         0.4143
     26 H5          2.6315   -3.9639   -0.2228 H         1 <0>         0.3993
     27 H6          3.9428   -3.7821    0.8117 H         1 <0>         0.4241
     28 H7          1.0481   -2.7035    3.9900 H         1 <0>         0.0876
     29 H8         -0.0361   -1.3771    3.4940 H         1 <0>         0.0783
     30 H9         -0.9472   -2.7551    5.4064 H         1 <0>         0.0952
     31 H10        -2.0056   -2.7427    3.9747 H         1 <0>         0.0408
     32 H11        -1.1491   -6.1047    2.9073 H         1 <0>         0.0948
     33 H12        -2.1210   -4.6572    2.5464 H         1 <0>         0.0403
     34 H13        -0.2486   -4.7334    0.9899 H         1 <0>         0.0753
     35 H14         0.9075   -4.9223    2.3346 H         1 <0>         0.0867
     36 H15        -1.8196   -4.7219    6.2042 H         1 <0>         0.0889
     37 H16        -2.9348   -5.0058    4.8463 H         1 <0>         0.0511
     38 H17        -2.4047   -7.1472    5.9078 H         1 <0>         0.0531
     39 H18        -1.6543   -7.0958    4.2946 H         1 <0>         0.0442
     40 H19        -0.1112   -7.8114    5.9717 H         1 <0>         0.3794
     41 H20        -0.2926   -0.2727   -3.1943 H         1 <0>         0.1310
     42 H21        -1.0961    0.9549   -2.1866 H         1 <0>         0.1121
     43 H22         0.6753    0.9671   -2.3611 H         1 <0>         0.1285
     44 H23        -2.0321   -0.6754   -0.7765 H         1 <0>         0.4756
@<TRIPOS>BOND
     1    1    2 1
     2    1   22 1
     3    1   23 1
     4    1   24 1
     5    2    7 ar
     6    2    3 ar
     7    3    4 ar
     8    3   21 1
     9    4    5 ar
    10    4   44 1
    11    5    6 ar
    12    6    7 ar
    13    6   12 1
    14    7    8 1
    15    8    9 2
    16    8   11 1
    17    9   10 1
    18   10   25 1
    19   11   26 1
    20   11   27 1
    21   12   17 1
    22   12   13 1
    23   13   14 1
    24   13   28 1
    25   13   29 1
    26   14   15 1
    27   14   30 1
    28   14   31 1
    29   15   16 1
    30   15   18 1
    31   16   17 1
    32   16   32 1
    33   16   33 1
    34   17   34 1
    35   17   35 1
    36   18   19 1
    37   18   36 1
    38   18   37 1
    39   19   20 1
    40   19   38 1
    41   19   39 1
    42   20   40 1
    43   21   41 1
    44   21   42 1
    45   21   43 1
@<TRIPOS>MOLECULE
ZINC49101832
   39    39     0     0     0
SMALL
USER_CHARGES

@<TRIPOS>ATOM
      1 C1         -0.0187    1.5258    0.0104 C.3       1 <0>        -0.1832
      2 C2          0.0021   -0.0041    0.0020 C.3       1 <0>         0.0832
      3 H1          0.5293   -0.3651    0.8851 H         1 <0>         0.1529
      4 C3         -1.4117   -0.5257    0.0127 C.ar      1 <0>        -0.1690
      5 C4         -2.1415   -0.5688   -1.1607 C.ar      1 <0>        -0.0686
      6 C5         -3.4382   -1.0472   -1.1509 C.ar      1 <0>        -0.1188
      7 C6         -4.0053   -1.4831    0.0323 C.ar      1 <0>         0.0136
      8 C7         -3.2754   -1.4408    1.2052 C.ar      1 <0>        -0.6688
      9 C8         -1.9769   -0.9662    1.1946 C.ar      1 <0>         0.0027
     10 S1         -3.9984   -1.9957    2.7132 S.o2      1 <0>         2.6909
     11 O1         -3.2972   -1.3442    3.7636 O.2       1 <0>        -0.9401
     12 O2         -5.4060   -1.8851    2.5536 O.2       1 <0>        -0.9361
     13 N1         -3.6632   -3.6115    2.8514 N.pl3     1 <0>        -1.0961
     14 C9         -2.2775   -4.0617    3.0046 C.3       1 <0>         0.1390
     15 H2         -1.6046   -3.3182    2.5774 H         1 <0>         0.1021
     16 C10        -1.9612   -4.2419    4.4906 C.3       1 <0>        -0.1756
     17 C11        -2.0941   -5.3753    2.2890 C.2       1 <0>         0.5040
     18 O3         -3.0288   -5.8851    1.7083 O.2       1 <0>        -0.5196
     19 N2         -0.8913   -5.9834    2.2944 N.am      1 <0>        -0.7305
     20 C12        -0.7130   -7.2603    1.5988 C.3       1 <0>         0.0833
     21 N3          0.6897   -0.4778   -1.2066 N.4       1 <0>        -0.6374
     22 H3          1.0039    1.9031    0.0027 H         1 <0>         0.0901
     23 H4         -0.5459    1.8868   -0.8726 H         1 <0>         0.0839
     24 H5         -0.5289    1.8773    0.9072 H         1 <0>         0.1109
     25 H6         -1.6985   -0.2284   -2.0850 H         1 <0>         0.1307
     26 H7         -4.0085   -1.0803   -2.0675 H         1 <0>         0.1494
     27 H8         -5.0188   -1.8562    0.0401 H         1 <0>         0.1557
     28 H9         -1.4052   -0.9367    2.1104 H         1 <0>         0.1526
     29 H10        -4.3843   -4.2599    2.8309 H         1 <0>         0.4334
     30 H11        -0.9302   -4.5769    4.6046 H         1 <0>         0.0768
     31 H12        -2.0939   -3.2919    5.0082 H         1 <0>         0.0896
     32 H13        -2.6341   -4.9855    4.9178 H         1 <0>         0.0762
     33 H14        -0.1438   -5.5756    2.7589 H         1 <0>         0.4036
     34 H15        -1.3859   -8.0038    2.0260 H         1 <0>         0.0661
     35 H16        -0.9384   -7.1319    0.5401 H         1 <0>         0.0617
     36 H17         0.3180   -7.5953    1.7128 H         1 <0>         0.0812
     37 H18         1.6363   -0.1286   -1.2138 H         1 <0>         0.4408
     38 H19         0.7033   -1.4867   -1.2121 H         1 <0>         0.4379
     39 H20         0.2017   -0.1436   -2.0240 H         1 <0>         0.4315
@<TRIPOS>BOND
     1    1    2 1
     2    1   22 1
     3    1   23 1
     4    1   24 1
     5    2    3 1
     6    2    4 1
     7    2   21 1
     8    4    9 ar
     9    4    5 ar
    10    5    6 ar
    11    5   25 1
    12    6    7 ar
    13    6   26 1
    14    7    8 ar
    15    7   27 1
    16    8    9 ar
    17    8   10 1
    18    9   28 1
    19   10   11 2
    20   10   12 2
    21   10   13 1
    22   13   14 1
    23   13   29 1
    24   14   15 1
    25   14   16 1
    26   14   17 1
    27   16   30 1
    28   16   31 1
    29   16   32 1
    30   17   18 2
    31   17   19 am
    32   19   20 1
    33   19   33 1
    34   20   34 1
    35   20   35 1
    36   20   36 1
    37   21   37 1
    38   21   38 1
    39   21   39 1
@<TRIPOS>MOLECULE
ZINC61804451
   40    41     0     0     0
SMALL
USER_CHARGES

@<TRIPOS>ATOM
      1 C1          0.4425    1.5914    0.5095 C.ar      1 <0>        -0.0453
      2 C2          1.5933    2.2673    0.1509 C.ar      1 <0>        -0.2389
      3 C3          2.7616    1.5627   -0.1057 C.ar      1 <0>         0.2509
      4 C4          2.7728    0.1784   -0.0032 C.ar      1 <0>        -0.1892
      5 C5          1.6184   -0.4997    0.3563 C.ar      1 <0>         0.1387
      6 C6          0.4506    0.2089    0.6145 C.ar      1 <0>         0.0062
      7 O1         -0.6918   -0.4394    0.9759 O.3       1 <0>        -0.3043
      8 C7         -0.7461   -1.8449    0.7085 C.3       1 <0>         0.0202
      9 C8          0.5743   -2.4738    1.1734 C.3       1 <0>         0.0172
     10 O2          1.6443   -1.8575    0.4493 O.3       1 <0>        -0.2983
     11 N1          3.9269    2.2473   -0.4679 N.pl3     1 <0>        -0.8730
     12 C9          1.5799    3.7700    0.0379 C.3       1 <0>         0.0320
     13 N2          1.4583    4.1537   -1.3748 N.4       1 <0>        -0.3528
     14 C10         0.1662    3.6907   -1.8985 C.3       1 <0>        -0.0476
     15 C11        -0.9516    4.3746   -1.1544 C.2       1 <0>         0.5164
     16 O3         -0.7016    5.0854   -0.2041 O.2       1 <0>        -0.5327
     17 N3         -2.2292    4.1963   -1.5450 N.am      1 <0>        -0.8182
     18 C12         1.5393    5.6156   -1.4939 C.3       1 <0>        -0.0596
     19 C13         1.6003    5.9984   -2.9502 C.2       1 <0>         0.5087
     20 O4          1.5321    5.1416   -3.8058 O.2       1 <0>        -0.5352
     21 N4          1.7308    7.2930   -3.3018 N.am      1 <0>        -0.8225
     22 H1         -0.4642    2.1417    0.7129 H         1 <0>         0.1404
     23 H2          3.6812   -0.3704   -0.2033 H         1 <0>         0.1473
     24 H3         -1.5778   -2.2910    1.2539 H         1 <0>         0.1308
     25 H4         -0.8759   -2.0108   -0.3609 H         1 <0>         0.0821
     26 H5          0.7074   -2.3020    2.2415 H         1 <0>         0.0869
     27 H6          0.5625   -3.5448    0.9715 H         1 <0>         0.1327
     28 H7          3.9186    3.2146   -0.5398 H         1 <0>         0.3910
     29 H8          4.7430    1.7547   -0.6472 H         1 <0>         0.4145
     30 H9          0.7334    4.1688    0.5969 H         1 <0>         0.1692
     31 H10         2.5069    4.1733    0.4455 H         1 <0>         0.1337
     32 H11         0.0970    3.9311   -2.9594 H         1 <0>         0.1740
     33 H12         0.0854    2.6120   -1.7644 H         1 <0>         0.1657
     34 H13        -2.4291    3.6278   -2.3051 H         1 <0>         0.4159
     35 H14        -2.9487    4.6365   -1.0661 H         1 <0>         0.4245
     36 H15         0.6589    6.0668   -1.0362 H         1 <0>         0.1867
     37 H16         2.4357    5.9723   -0.9866 H         1 <0>         0.1640
     38 H17         1.7854    7.9783   -2.6175 H         1 <0>         0.4150
     39 H18         1.7701    7.5394   -4.2391 H         1 <0>         0.4237
     40 H19         2.2065    3.7312   -1.9037 H         1 <0>         0.4290
@<TRIPOS>BOND
     1    1    6 ar
     2    1    2 ar
     3    1   22 1
     4    2    3 ar
     5    2   12 1
     6    3    4 ar
     7    3   11 1
     8    4    5 ar
     9    4   23 1
    10    5   10 1
    11    5    6 ar
    12    6    7 1
    13    7    8 1
    14    8    9 1
    15    8   24 1
    16    8   25 1
    17    9   10 1
    18    9   26 1
    19    9   27 1
    20   11   28 1
    21   11   29 1
    22   12   13 1
    23   12   30 1
    24   12   31 1
    25   13   14 1
    26   13   18 1
    27   13   40 1
    28   14   15 1
    29   14   32 1
    30   14   33 1
    31   15   16 2
    32   15   17 am
    33   17   34 1
    34   17   35 1
    35   18   19 1
    36   18   36 1
    37   18   37 1
    38   19   20 2
    39   19   21 am
    40   21   38 1
    41   21   39 1
@<TRIPOS>MOLECULE
ZINC02379093
   31    31     0     0     0
SMALL
USER_CHARGES
2-allyloxy-6-(hydroxymethyl)tetrahydropyran-3,4,5-triol
@<TRIPOS>ATOM
      1 C1         -0.0126    1.0758    0.0080 C.2       1 <0>        -0.1771
      2 C2         -1.1558    1.7153    0.0169 C.2       1 <0>        -0.1527
      3 C3         -2.4506    0.9442    0.0188 C.3       1 <0>         0.0866
      4 O1         -3.3428    1.5137    0.9788 O.3       1 <0>        -0.3848
      5 C4         -4.6071    0.8529    1.0610 C.3       1 <0>         0.2146
      6 H1         -4.4507   -0.2083    1.2550 H         1 <0>         0.1053
      7 C5         -5.4297    1.4641    2.1983 C.3       1 <0>         0.0649
      8 H2         -6.3778    0.9339    2.2878 H         1 <0>         0.0936
      9 C6         -5.6961    2.9405    1.8889 C.3       1 <0>         0.0857
     10 H3         -4.7512    3.4823    1.8488 H         1 <0>         0.0814
     11 C7         -6.4058    3.0472    0.5357 C.3       1 <0>         0.0907
     12 H4         -6.5508    4.0971    0.2812 H         1 <0>         0.0816
     13 C8         -5.5455    2.3748   -0.5374 C.3       1 <0>         0.1021
     14 H5         -4.5934    2.8988   -0.6212 H         1 <0>         0.0894
     15 O2         -5.3098    1.0133   -0.1729 O.3       1 <0>        -0.3641
     16 C9         -6.2752    2.4243   -1.8813 C.3       1 <0>         0.0880
     17 O3         -5.4255    1.9009   -2.9041 O.3       1 <0>        -0.5686
     18 O4         -7.6747    2.3940    0.6090 O.3       1 <0>        -0.5500
     19 O5         -6.5254    3.5006    2.9091 O.3       1 <0>        -0.5623
     20 O6         -4.7034    1.3566    3.4242 O.3       1 <0>        -0.5524
     21 H6          0.0021   -0.0041    0.0020 H         1 <0>         0.0981
     22 H7          0.9153    1.6285    0.0021 H         1 <0>         0.1056
     23 H8         -1.1705    2.7952    0.0228 H         1 <0>         0.1155
     24 H9         -2.9035    0.9922   -0.9715 H         1 <0>         0.0722
     25 H10        -2.2535   -0.0960    0.2782 H         1 <0>         0.0555
     26 H11        -7.1846    1.8263   -1.8232 H         1 <0>         0.0673
     27 H12        -6.5336    3.4567   -2.1166 H         1 <0>         0.0629
     28 H13        -5.8242    1.9016   -3.7851 H         1 <0>         0.3838
     29 H14        -8.2725    2.7691    1.2701 H         1 <0>         0.3879
     30 H15        -6.1373    3.4666    3.7941 H         1 <0>         0.3936
     31 H16        -4.4955    0.4475    3.6798 H         1 <0>         0.3857
@<TRIPOS>BOND
     1    1    2 2
     2    1   21 1
     3    1   22 1
     4    2    3 1
     5    2   23 1
     6    3    4 1
     7    3   24 1
     8    3   25 1
     9    4    5 1
    10    5    6 1
    11    5   15 1
    12    5    7 1
    13    7    8 1
    14    7    9 1
    15    7   20 1
    16    9   10 1
    17    9   11 1
    18    9   19 1
    19   11   12 1
    20   11   13 1
    21   11   18 1
    22   13   14 1
    23   13   15 1
    24   13   16 1
    25   16   17 1
    26   16   26 1
    27   16   27 1
    28   17   28 1
    29   18   29 1
    30   19   30 1
    31   20   31 1
@<TRIPOS>MOLECULE
ZINC05005024
   23    24     0     0     0
SMALL
USER_CHARGES
2-(7H-purin-6-ylsulfanyl)acetohydrazide
@<TRIPOS>ATOM
      1 C1          1.2048    1.8000    0.0002 C.2       1 <0>         0.2996
      2 N1          2.0856    0.7742   -0.0137 N.pl3     1 <0>        -0.5874
      3 H1          3.1666    0.9776   -0.0229 H         1 <0>         0.4650
      4 C2          1.3516   -0.3927   -0.0130 C.ar      1 <0>        -0.0399
      5 C3          0.0021   -0.0041    0.0020 C.ar      1 <0>         0.3045
      6 N2         -0.0162    1.3421    0.0094 N.2       1 <0>        -0.4933
      7 N3         -0.9389   -0.9540    0.0063 N.ar      1 <0>        -0.4843
      8 C4         -0.6055   -2.2258   -0.0028 C.ar      1 <0>         0.3127
      9 N4          0.6512   -2.6304   -0.0170 N.ar      1 <0>        -0.5246
     10 C5          1.6551   -1.7560   -0.0225 C.ar      1 <0>         0.1810
     11 S1          3.3289   -2.3061   -0.0420 S.3       1 <0>         0.0367
     12 C6          3.0709   -4.0976   -0.0479 C.3       1 <0>        -0.1383
     13 C7          4.4056   -4.7972   -0.0647 C.2       1 <0>         0.5311
     14 O1          5.4303   -4.1485   -0.0719 O.2       1 <0>        -0.5167
     15 N5          4.4605   -6.1438   -0.0716 N.am      1 <0>        -0.5903
     16 N6          5.6702   -6.7780   -0.0868 N.3       1 <0>        -0.5781
     17 H2          1.4733    2.8461    0.0030 H         1 <0>         0.2331
     18 H3         -1.3900   -2.9681    0.0015 H         1 <0>         0.2081
     19 H4          2.5145   -4.3909    0.8545 H         1 <0>         0.1309
     20 H5          2.4963   -4.3824   -0.9416 H         1 <0>         0.1287
     21 H6          3.5311   -6.7322   -0.0650 H         1 <0>         0.4242
     22 H7          5.5134   -7.8668   -0.0903 H         1 <0>         0.3584
     23 H8          6.2266   -6.4847   -0.9892 H         1 <0>         0.3388
@<TRIPOS>BOND
     1    1    6 2
     2    1    2 1
     3    1   17 1
     4    2    3 1
     5    2    4 1
     6    4   10 ar
     7    4    5 ar
     8    5    6 1
     9    5    7 ar
    10    7    8 ar
    11    8    9 ar
    12    8   18 1
    13    9   10 ar
    14   10   11 1
    15   11   12 1
    16   12   13 1
    17   12   19 1
    18   12   20 1
    19   13   14 2
    20   13   15 am
    21   15   16 1
    22   15   21 1
    23   16   22 1
    24   16   23 1
@<TRIPOS>MOLECULE
ZINC35179829
   30    31     0     0     0
SMALL
USER_CHARGES

@<TRIPOS>ATOM
      1 C1         -0.0187    1.5258    0.0104 C.3       1 <0>        -0.1258
      2 C2          1.4167    2.0553   -0.0004 C.3       1 <0>        -0.1088
      3 C3          2.1567    1.5485    1.2391 C.3       1 <0>         0.1015
      4 C4          2.1775    0.0187    1.2307 C.3       1 <0>        -0.1488
      5 C5          0.7421   -0.5109    1.2415 C.3       1 <0>        -0.1293
      6 C6          0.0021   -0.0041    0.0020 C.3       1 <0>         0.1527
      7 N1         -1.3723   -0.5112    0.0124 N.pl3     1 <0>        -0.6780
      8 C7         -1.6527   -1.7771   -0.5023 C.2       1 <0>         0.3253
      9 C8         -3.0305   -2.2958   -0.5033 C.2       1 <0>         0.5336
     10 O1         -3.9420   -1.6260   -0.0549 O.2       1 <0>        -0.4790
     11 N2         -3.2687   -3.5239   -1.0088 N.am      1 <0>        -0.6507
     12 H1         -4.1716   -3.8782   -1.0159 H         1 <0>         0.4383
     13 C9         -2.2546   -4.2577   -1.5037 C.2       1 <0>         0.6763
     14 O2         -2.4824   -5.3632   -1.9569 O.2       1 <0>        -0.5412
     15 N3         -0.9942   -3.7895   -1.5061 N.am      1 <0>        -0.5278
     16 H2         -0.2813   -4.3379   -1.8692 H         1 <0>         0.4563
     17 N4         -0.6966   -2.5199   -0.9967 N.2       1 <0>        -0.2759
     18 O3          3.4973    2.0431    1.2290 O.3       1 <0>        -0.5678
     19 H3         -0.5289    1.8773    0.9072 H         1 <0>         0.0741
     20 H4         -0.5459    1.8868   -0.8726 H         1 <0>         0.0804
     21 H5          1.9269    1.7038   -0.8972 H         1 <0>         0.0753
     22 H6          1.4019    3.1452    0.0056 H         1 <0>         0.0777
     23 H7          1.6465    1.9000    2.1359 H         1 <0>         0.0563
     24 H8          2.6876   -0.3328    0.3339 H         1 <0>         0.0758
     25 H9          2.7046   -0.3424    2.1137 H         1 <0>         0.0694
     26 H10         0.7568   -1.6008    1.2356 H         1 <0>         0.0736
     27 H11         0.2319   -0.1594    2.1383 H         1 <0>         0.0679
     28 H12         0.5123   -0.3556   -0.8948 H         1 <0>         0.0966
     29 H13        -2.0874    0.0333    0.3772 H         1 <0>         0.4220
     30 H14         4.0265    1.7608    1.9875 H         1 <0>         0.3800
@<TRIPOS>BOND
     1    1    6 1
     2    1    2 1
     3    1   19 1
     4    1   20 1
     5    2    3 1
     6    2   21 1
     7    2   22 1
     8    3    4 1
     9    3   18 1
    10    3   23 1
    11    4    5 1
    12    4   24 1
    13    4   25 1
    14    5    6 1
    15    5   26 1
    16    5   27 1
    17    6    7 1
    18    6   28 1
    19    7    8 1
    20    7   29 1
    21    8   17 2
    22    8    9 1
    23    9   10 2
    24    9   11 am
    25   11   12 1
    26   11   13 am
    27   13   14 2
    28   13   15 am
    29   15   16 1
    30   15   17 1
    31   18   30 1
@<TRIPOS>MOLECULE
ZINC40481257
   36    36     0     0     0
SMALL
USER_CHARGES

@<TRIPOS>ATOM
      1 C1         -0.0187    1.5258    0.0104 C.3       1 <0>        -0.1774
      2 C2          0.0021   -0.0041    0.0020 C.3       1 <0>        -0.1041
      3 C3          0.7421   -0.5109    1.2415 C.3       1 <0>        -0.1638
      4 C4         -1.4333   -0.5336    0.0129 C.3       1 <0>         0.0089
      5 H1         -1.4190   -1.6203    0.0965 H         1 <0>         0.1541
      6 C5         -2.1247   -0.1373   -1.2662 C.2       1 <0>         0.5041
      7 O1         -2.8750    0.8155   -1.2798 O.2       1 <0>        -0.5027
      8 N1         -1.9091   -0.8415   -2.3949 N.am      1 <0>        -0.6705
      9 C6         -2.5812   -0.4562   -3.6383 C.3       1 <0>         0.0980
     10 C7         -4.1130   -0.6454   -3.5077 C.3       1 <0>        -0.1092
     11 C8         -4.2921   -2.1640   -3.7540 C.3       1 <0>        -0.1232
     12 C9         -3.2671   -2.4914   -4.8595 C.3       1 <0>        -0.1242
     13 C10        -2.1793   -1.4055   -4.7859 C.3       1 <0>        -0.1128
     14 C11        -2.2517    0.9706   -3.9942 C.2       1 <0>         0.5049
     15 O2         -1.5052    1.6198   -3.2816 O.co2     1 <0>        -0.6794
     16 O3         -2.7315    1.4757   -4.9948 O.co2     1 <0>        -0.6808
     17 N2         -2.1568    0.0360    1.1574 N.4       1 <0>        -0.6201
     18 H2          1.0039    1.9031    0.0027 H         1 <0>         0.0809
     19 H3         -0.5459    1.8868   -0.8726 H         1 <0>         0.1043
     20 H4         -0.5289    1.8773    0.9072 H         1 <0>         0.0444
     21 H5          0.5123   -0.3556   -0.8948 H         1 <0>         0.1207
     22 H6          0.2319   -0.1594    2.1383 H         1 <0>         0.0512
     23 H7          0.7568   -1.6008    1.2356 H         1 <0>         0.0708
     24 H8          1.7647   -0.1336    1.2338 H         1 <0>         0.0843
     25 H9         -1.3090   -1.6035   -2.3840 H         1 <0>         0.3916
     26 H10        -4.4519   -0.3736   -2.5080 H         1 <0>         0.0631
     27 H11        -4.6398   -0.0662   -4.2661 H         1 <0>         0.0860
     28 H12        -4.0683   -2.7265   -2.8476 H         1 <0>         0.0537
     29 H13        -5.3043   -2.3781   -4.0969 H         1 <0>         0.0636
     30 H14        -2.8274   -3.4729   -4.6822 H         1 <0>         0.0589
     31 H15        -3.7511   -2.4694   -5.8358 H         1 <0>         0.0669
     32 H16        -2.1355   -0.8566   -5.7266 H         1 <0>         0.0894
     33 H17        -1.2118   -1.8601   -4.5729 H         1 <0>         0.0599
     34 H18        -3.1034   -0.3132    1.1646 H         1 <0>         0.4359
     35 H19        -1.6939   -0.2293    2.0138 H         1 <0>         0.4319
     36 H20        -2.1700    1.0420    1.0800 H         1 <0>         0.4408
@<TRIPOS>BOND
     1    1    2 1
     2    1   18 1
     3    1   19 1
     4    1   20 1
     5    2    3 1
     6    2    4 1
     7    2   21 1
     8    3   22 1
     9    3   23 1
    10    3   24 1
    11    4    5 1
    12    4    6 1
    13    4   17 1
    14    6    7 2
    15    6    8 am
    16    8    9 1
    17    8   25 1
    18    9   13 1
    19    9   10 1
    20    9   14 1
    21   10   11 1
    22   10   26 1
    23   10   27 1
    24   11   12 1
    25   11   28 1
    26   11   29 1
    27   12   13 1
    28   12   30 1
    29   12   31 1
    30   13   32 1
    31   13   33 1
    32   14   15 2
    33   14   16 1
    34   17   34 1
    35   17   35 1
    36   17   36 1
@<TRIPOS>MOLECULE
ZINC52725567
   27    28     0     0     0
SMALL
USER_CHARGES

@<TRIPOS>ATOM
      1 C1         -0.0071    1.3937    0.0633 C.ar      1 <0>        -0.2277
      2 C2          1.1930    2.0922    0.0389 C.ar      1 <0>        -0.0208
      3 C3          2.3741    1.3739   -0.0025 C.ar      1 <0>        -0.2218
      4 C4          2.3202   -0.0164   -0.0184 C.ar      1 <0>         0.4244
      5 N1          1.1557   -0.6458    0.0059 N.ar      1 <0>        -0.5231
      6 C5          0.0133    0.0138    0.0455 C.ar      1 <0>         0.1523
      7 N2          3.4995   -0.7510   -0.0605 N.pl3     1 <0>        -0.5742
      8 N3          3.4532   -2.1107   -0.1830 N.3       1 <0>        -0.5956
      9 C6          3.7013    2.0871   -0.0307 C.3       1 <0>         0.1740
     10 N4          3.4777    3.5304   -0.1452 N.am      1 <0>        -0.5754
     11 C7          3.2943    4.1778   -1.3129 C.2       1 <0>         0.5175
     12 O1          3.2837    3.6941   -2.4245 O.2       1 <0>        -0.4565
     13 C8          3.1032    5.6364   -0.9472 C.3       1 <0>         0.0611
     14 N5          3.2112    5.6420    0.5220 N.am      1 <0>        -0.7276
     15 C9          3.4246    4.3678    0.8969 C.2       1 <0>         0.6993
     16 O2          3.5576    4.0170    2.0529 O.2       1 <0>        -0.5357
     17 H1         -0.9467    1.9249    0.1002 H         1 <0>         0.1340
     18 H2          1.2038    3.1721    0.0517 H         1 <0>         0.1199
     19 H3         -0.9176   -0.5333    0.0647 H         1 <0>         0.1595
     20 H4          4.3554   -0.2981   -0.0028 H         1 <0>         0.4086
     21 H5          4.3822   -2.5041   -0.1995 H         1 <0>         0.3546
     22 H6          2.8997   -2.5215    0.5539 H         1 <0>         0.3453
     23 H7          4.2469    1.8758    0.8890 H         1 <0>         0.1066
     24 H8          4.2820    1.7405   -0.8855 H         1 <0>         0.1028
     25 H9          3.8874    6.2492   -1.3917 H         1 <0>         0.1276
     26 H10         2.1190    5.9846   -1.2607 H         1 <0>         0.1269
     27 H11         3.1395    6.4136    1.1054 H         1 <0>         0.4440
@<TRIPOS>BOND
     1    1    6 ar
     2    1    2 ar
     3    1   17 1
     4    2    3 ar
     5    2   18 1
     6    3    4 ar
     7    3    9 1
     8    4    5 ar
     9    4    7 1
    10    5    6 ar
    11    6   19 1
    12    7    8 1
    13    7   20 1
    14    8   21 1
    15    8   22 1
    16    9   10 1
    17    9   23 1
    18    9   24 1
    19   10   15 am
    20   10   11 am
    21   11   12 2
    22   11   13 1
    23   13   14 1
    24   13   25 1
    25   13   26 1
    26   14   15 am
    27   14   27 1
    28   15   16 2
@<TRIPOS>MOLECULE
ZINC02023559
   29    30     0     0     0
SMALL
USER_CHARGES
4-amino-5-fluoro-1-[4-hydroxy-5-(hydroxymethyl)tetrahydrofuran-2-yl]-pyrimidin-2-one
@<TRIPOS>ATOM
      1 C1         -2.7832   -0.3503    3.8238 C.2       1 <0>         0.1832
      2 C2         -3.0648   -0.3926    5.1485 C.2       1 <0>        -0.1022
      3 C3         -3.8235   -1.4714    5.6515 C.2       1 <0>         0.4590
      4 N1         -4.2494   -2.4159    4.8233 N.2       1 <0>        -0.5477
      5 C4         -3.9693   -2.3578    3.5227 C.2       1 <0>         0.6517
      6 O1         -4.3733   -3.2392    2.7822 O.2       1 <0>        -0.5195
      7 N2         -3.2484   -1.3431    3.0114 N.am      1 <0>        -0.5142
      8 C5         -2.9566   -1.3071    1.5762 C.3       1 <0>         0.2937
      9 H1         -3.8770   -1.2238    0.9983 H         1 <0>         0.1173
     10 C6         -2.1566   -2.5644    1.1502 C.3       1 <0>        -0.1894
     11 C7         -1.4265   -2.0687   -0.1217 C.3       1 <0>         0.0810
     12 H2         -1.9680   -2.3757   -1.0165 H         1 <0>         0.0894
     13 C8         -1.4333   -0.5336    0.0129 C.3       1 <0>         0.0924
     14 H3         -1.9974   -0.0920   -0.8087 H         1 <0>         0.0996
     15 O2         -2.0615   -0.2174    1.2665 O.3       1 <0>        -0.3642
     16 C9          0.0021   -0.0041    0.0020 C.3       1 <0>         0.0889
     17 O3         -0.0173    1.4248    0.0099 O.3       1 <0>        -0.5728
     18 O4         -0.0857   -2.5618   -0.1563 O.3       1 <0>        -0.5535
     19 N3         -4.1193   -1.5431    6.9937 N.pl3     1 <0>        -0.7463
     20 F1         -2.6214    0.5791    5.9758 F         1 <0>        -0.1181
     21 H4         -2.2008    0.4621    3.4149 H         1 <0>         0.1940
     22 H5         -2.8271   -3.3914    0.9165 H         1 <0>         0.1120
     23 H6         -1.4422   -2.8509    1.9221 H         1 <0>         0.0945
     24 H7          0.5123   -0.3556   -0.8948 H         1 <0>         0.0720
     25 H8          0.5293   -0.3651    0.8851 H         1 <0>         0.0590
     26 H9          0.8606    1.8301    0.0037 H         1 <0>         0.3842
     27 H10        -0.0222   -3.5231   -0.2402 H         1 <0>         0.3894
     28 H11        -5.1117   -1.5406    7.1169 H         1 <0>         0.3804
     29 H12        -3.8065   -0.8509    7.5969 H         1 <0>         0.3861
@<TRIPOS>BOND
     1    1    7 1
     2    1    2 2
     3    1   21 1
     4    2    3 1
     5    2   20 1
     6    3    4 2
     7    3   19 1
     8    4    5 1
     9    5    6 2
    10    5    7 am
    11    7    8 1
    12    8    9 1
    13    8   15 1
    14    8   10 1
    15   10   11 1
    16   10   22 1
    17   10   23 1
    18   11   12 1
    19   11   13 1
    20   11   18 1
    21   13   14 1
    22   13   15 1
    23   13   16 1
    24   16   17 1
    25   16   24 1
    26   16   25 1
    27   17   26 1
    28   18   27 1
    29   19   28 1
    30   19   29 1
@<TRIPOS>MOLECULE
ZINC06765351
   26    27     0     0     0
SMALL
USER_CHARGES
5-[(3,4-dihydroxyphenyl)methylene]hexahydropyrimidine-2,4,6-trione
@<TRIPOS>ATOM
      1 C1         -2.5511    5.2530   -0.0422 C.ar      1 <0>        -0.0196
      2 C2         -3.7721    5.8836   -0.1144 C.ar      1 <0>        -0.1416
      3 C3         -3.8392    7.2686   -0.2066 C.ar      1 <0>         0.1179
      4 C4         -2.6688    8.0300   -0.2221 C.ar      1 <0>         0.0665
      5 C5         -1.4401    7.4089   -0.1454 C.ar      1 <0>        -0.0844
      6 C6         -1.3701    6.0102   -0.0517 C.ar      1 <0>        -0.1150
      7 C7         -0.0705    5.3441    0.0296 C.2       1 <0>         0.1358
      8 C8          0.1374    4.3463    0.9626 C.2       1 <0>        -0.2833
      9 C9          1.3503    3.5052    0.9348 C.2       1 <0>         0.5728
     10 O1          2.2051    3.6691    0.0851 O.2       1 <0>        -0.4800
     11 N1          1.4846    2.5501    1.8779 N.am      1 <0>        -0.6621
     12 C10         0.5508    2.3589    2.8201 C.2       1 <0>         0.7158
     13 O2          0.7333    1.4808    3.6403 O.2       1 <0>        -0.5235
     14 N2         -0.5758    3.0800    2.9036 N.am      1 <0>        -0.6618
     15 C11        -0.8438    4.0737    2.0315 C.2       1 <0>         0.5633
     16 O3         -1.8677    4.7243    2.1208 O.2       1 <0>        -0.4656
     17 O4         -2.7408    9.3850   -0.3125 O.3       1 <0>        -0.4842
     18 O5         -5.0467    7.8834   -0.2823 O.3       1 <0>        -0.4860
     19 H1         -2.5021    4.1762    0.0256 H         1 <0>         0.1283
     20 H2         -4.6808    5.3001   -0.1032 H         1 <0>         0.1395
     21 H3         -0.5343    7.9970   -0.1576 H         1 <0>         0.1416
     22 H4          0.7267    5.6321   -0.6397 H         1 <0>         0.1661
     23 H5          2.2757    1.9887    1.8743 H         1 <0>         0.4392
     24 H6         -1.2117    2.8852    3.6097 H         1 <0>         0.4385
     25 H7         -2.7356    9.7195   -1.2198 H         1 <0>         0.3888
     26 H8         -5.3708    8.0039   -1.1854 H         1 <0>         0.3932
@<TRIPOS>BOND
     1    1    6 ar
     2    1    2 ar
     3    1   19 1
     4    2    3 ar
     5    2   20 1
     6    3    4 ar
     7    3   18 1
     8    4    5 ar
     9    4   17 1
    10    5    6 ar
    11    5   21 1
    12    6    7 1
    13    7    8 2
    14    7   22 1
    15    8   15 1
    16    8    9 1
    17    9   10 2
    18    9   11 am
    19   11   12 am
    20   11   23 1
    21   12   13 2
    22   12   14 am
    23   14   15 am
    24   14   24 1
    25   15   16 2
    26   17   25 1
    27   18   26 1
@<TRIPOS>MOLECULE
ZINC40362631
   30    30     0     0     0
SMALL
USER_CHARGES

@<TRIPOS>ATOM
      1 C1         -0.0184    1.5028    0.0103 C.3       1 <0>        -0.1427
      2 C2          0.0021   -0.0041    0.0020 C.2       1 <0>         0.2317
      3 C3          0.0079   -0.7958   -1.0953 C.2       1 <0>        -0.8275
      4 C4          0.0284   -2.1267   -0.6656 C.2       1 <0>         0.1600
      5 N1          0.0347   -2.1338    0.6427 N.2       1 <0>        -0.2888
      6 N2          0.0237   -0.8054    1.0876 N.pl3     1 <0>        -0.4616
      7 H1          0.0286   -0.5133    2.0125 H         1 <0>         0.4436
      8 C5          0.0404   -3.3426   -1.5559 C.3       1 <0>        -0.1125
      9 S1         -0.0081   -0.2472   -2.7696 S.o2      1 <0>         2.7259
     10 O1         -0.5477   -1.3118   -3.5407 O.2       1 <0>        -0.9549
     11 O2         -0.5775    1.0548   -2.7649 O.2       1 <0>        -0.9544
     12 N3          1.5692   -0.0722   -3.2427 N.pl3     1 <0>        -1.0967
     13 C6          2.4438   -1.2447   -3.3241 C.3       1 <0>         0.1667
     14 H2          2.0750   -2.0204   -2.6531 H         1 <0>         0.1123
     15 C7          2.4542   -1.7745   -4.7594 C.3       1 <0>        -0.1711
     16 C8          3.8433   -0.8563   -2.9219 C.2       1 <0>         0.2738
     17 S2          4.1635    0.6513   -2.4962 S.2       1 <0>        -0.4238
     18 N4          4.8250   -1.7798   -2.9210 N.pl3     1 <0>        -0.7737
     19 H3          1.0042    1.8801    0.0026 H         1 <0>         0.1025
     20 H4         -0.5455    1.8639   -0.8728 H         1 <0>         0.1276
     21 H5         -0.5286    1.8543    0.9071 H         1 <0>         0.0861
     22 H6          1.0708   -3.6217   -1.7759 H         1 <0>         0.0805
     23 H7         -0.4595   -4.1685   -1.0497 H         1 <0>         0.0867
     24 H8         -0.4815   -3.1172   -2.4858 H         1 <0>         0.1152
     25 H9          1.9140    0.8065   -3.4658 H         1 <0>         0.4327
     26 H10         1.4420   -2.0554   -5.0503 H         1 <0>         0.0948
     27 H11         2.8230   -0.9988   -5.4304 H         1 <0>         0.0744
     28 H12         3.1049   -2.6468   -4.8200 H         1 <0>         0.0709
     29 H13         4.6307   -2.6944   -3.1793 H         1 <0>         0.4001
     30 H14         5.7258   -1.5298   -2.6622 H         1 <0>         0.4222
@<TRIPOS>BOND
     1    1    2 1
     2    1   19 1
     3    1   20 1
     4    1   21 1
     5    2    6 1
     6    2    3 2
     7    3    4 1
     8    3    9 1
     9    4    5 2
    10    4    8 1
    11    5    6 1
    12    6    7 1
    13    8   22 1
    14    8   23 1
    15    8   24 1
    16    9   10 2
    17    9   11 2
    18    9   12 1
    19   12   13 1
    20   12   25 1
    21   13   14 1
    22   13   15 1
    23   13   16 1
    24   15   26 1
    25   15   27 1
    26   15   28 1
    27   16   17 2
    28   16   18 1
    29   18   29 1
    30   18   30 1
@<TRIPOS>MOLECULE
ZINC49355233
   33    34     0     0     0
SMALL
USER_CHARGES

@<TRIPOS>ATOM
      1 C1         -0.0187    1.5258    0.0104 C.3       1 <0>        -0.1754
      2 C2          0.0021   -0.0041    0.0020 C.3       1 <0>         0.0736
      3 H1         -1.0205   -0.3814    0.0098 H         1 <0>         0.1422
      4 C3          0.7074   -0.4901   -1.2379 C.ar      1 <0>        -0.1232
      5 C4          2.0911   -0.5096   -1.2808 C.ar      1 <0>        -0.1063
      6 C5          2.7465   -0.9532   -2.4126 C.ar      1 <0>        -0.0891
      7 C6          2.0155   -1.3809   -3.5105 C.ar      1 <0>         0.1097
      8 C7          0.6201   -1.3613   -3.4672 C.ar      1 <0>         0.0978
      9 C8         -0.0291   -0.9194   -2.3243 C.ar      1 <0>        -0.0757
     10 N1          0.1724   -1.8414   -4.6956 N.am      1 <0>        -0.6400
     11 H2         -0.7549   -1.9433   -4.9615 H         1 <0>         0.4400
     12 C9          1.2460   -2.1393   -5.4514 C.2       1 <0>         0.6855
     13 O1          1.2046   -2.5823   -6.5840 O.2       1 <0>        -0.5404
     14 N2          2.3725   -1.8723   -4.7639 N.am      1 <0>        -0.6399
     15 H3          3.2782   -2.0004   -5.0866 H         1 <0>         0.4409
     16 N3          0.7126   -0.4907    1.1921 N.4       1 <0>        -0.4811
     17 C10        -0.0398   -0.1189    2.3978 C.3       1 <0>        -0.0579
     18 H4         -0.2092    0.9579    2.4027 H         1 <0>         0.1338
     19 C11        -1.3855   -0.8468    2.4039 C.3       1 <0>        -0.1578
     20 C12         0.7479   -0.5091    3.6218 C.2       1 <0>         0.4911
     21 O2          1.8353   -1.0470    3.5010 O.co2     1 <0>        -0.6743
     22 O3          0.2978   -0.2868    4.7329 O.co2     1 <0>        -0.6356
     23 H5          1.0039    1.9031    0.0027 H         1 <0>         0.0817
     24 H6         -0.5459    1.8868   -0.8726 H         1 <0>         0.1001
     25 H7         -0.5289    1.8773    0.9072 H         1 <0>         0.0858
     26 H8          2.6603   -0.1761   -0.4257 H         1 <0>         0.1366
     27 H9          3.8260   -0.9666   -2.4425 H         1 <0>         0.1441
     28 H10        -1.1084   -0.9069   -2.2856 H         1 <0>         0.1420
     29 H11         0.7982   -1.4950    1.1455 H         1 <0>         0.4259
     30 H12        -1.9438   -0.5709    3.2985 H         1 <0>         0.1043
     31 H13        -1.9553   -0.5646    1.5185 H         1 <0>         0.0650
     32 H14        -1.2162   -1.9236    2.3989 H         1 <0>         0.0724
     33 H15         1.6317   -0.0761    1.2281 H         1 <0>         0.4245
@<TRIPOS>BOND
     1    1    2 1
     2    1   23 1
     3    1   24 1
     4    1   25 1
     5    2    3 1
     6    2    4 1
     7    2   16 1
     8    4    9 ar
     9    4    5 ar
    10    5    6 ar
    11    5   26 1
    12    6    7 ar
    13    6   27 1
    14    7   14 1
    15    7    8 ar
    16    8    9 ar
    17    8   10 1
    18    9   28 1
    19   10   11 1
    20   10   12 am
    21   12   13 2
    22   12   14 am
    23   14   15 1
    24   16   17 1
    25   16   29 1
    26   16   33 1
    27   17   18 1
    28   17   19 1
    29   17   20 1
    30   19   30 1
    31   19   31 1
    32   19   32 1
    33   20   21 2
    34   20   22 1
@<TRIPOS>MOLECULE
ZINC59810228
   24    24     0     0     0
SMALL
USER_CHARGES

@<TRIPOS>ATOM
      1 C1         -0.0187    1.5258    0.0104 C.3       1 <0>         0.1193
      2 C2          0.0021   -0.0041    0.0020 C.3       1 <0>         0.0621
      3 O1          0.5895   -0.4792    1.2150 O.3       1 <0>        -0.5724
      4 N1          1.3557    2.0329    0.0000 N.am      1 <0>        -0.7163
      5 C3          1.5840    3.3611    0.0050 C.2       1 <0>         0.5358
      6 O2          0.6516    4.1366    0.0181 O.2       1 <0>        -0.5235
      7 C4          2.9978    3.8828   -0.0057 C.3       1 <0>        -0.1592
      8 S1          2.9732    5.6966    0.0043 S.3       1 <0>         0.1269
      9 C5          4.6769    6.1461   -0.0096 C.2       1 <0>         0.0256
     10 N2          5.7454    5.3727   -0.0298 N.2       1 <0>        -0.2777
     11 N3          6.9994    5.9383   -0.0379 N.2       1 <0>        -0.3754
     12 C6          7.1277    7.2505   -0.0254 C.2       1 <0>         0.3513
     13 S2          5.4190    7.7709   -0.0079 S.3       1 <0>         0.0055
     14 N4          8.2835    8.0226   -0.0302 N.pl3     1 <0>        -0.7890
     15 H1         -0.5459    1.8868   -0.8726 H         1 <0>         0.0871
     16 H2         -0.5289    1.8773    0.9072 H         1 <0>         0.0800
     17 H3         -1.0175   -0.3808   -0.0798 H         1 <0>         0.0673
     18 H4          0.5883   -0.3548   -0.8473 H         1 <0>         0.0555
     19 H5          0.6355   -1.4430    1.2786 H         1 <0>         0.3854
     20 H6          2.1015    1.4126   -0.0104 H         1 <0>         0.4079
     21 H7          3.5250    3.5217    0.8773 H         1 <0>         0.1289
     22 H8          3.5080    3.5312   -0.9025 H         1 <0>         0.1283
     23 H9          9.1533    7.5935   -0.0448 H         1 <0>         0.4229
     24 H10         8.2203    8.9905   -0.0188 H         1 <0>         0.4236
@<TRIPOS>BOND
     1    1    2 1
     2    1    4 1
     3    1   15 1
     4    1   16 1
     5    2    3 1
     6    2   17 1
     7    2   18 1
     8    3   19 1
     9    4    5 am
    10    4   20 1
    11    5    6 2
    12    5    7 1
    13    7    8 1
    14    7   21 1
    15    7   22 1
    16    8    9 1
    17    9   13 1
    18    9   10 2
    19   10   11 1
    20   11   12 2
    21   12   13 1
    22   12   14 1
    23   14   23 1
    24   14   24 1
@<TRIPOS>MOLECULE
ZINC04773659
   32    33     0     0     0
SMALL
USER_CHARGES
2-(3,4,5-trihydroxytetrahydropyran-2-yl)aminobenzonitrile
@<TRIPOS>ATOM
      1 C1         -3.4970   -0.8810    3.1082 C.ar      1 <0>        -0.1708
      2 C2         -2.7696   -1.3589    2.0299 C.ar      1 <0>        -0.0407
      3 C3         -1.8422   -0.5534    1.4005 C.ar      1 <0>        -0.1902
      4 C4         -1.6325    0.7453    1.8455 C.ar      1 <0>         0.2618
      5 C5         -2.3638    1.2308    2.9408 C.ar      1 <0>        -0.1038
      6 C6         -3.3025    0.4046    3.5643 C.ar      1 <0>        -0.0239
      7 C7         -2.1532    2.5662    3.4128 C.1       1 <0>         0.2519
      8 N1         -1.9860    3.6256    3.7873 N.1       1 <0>        -0.4192
      9 N2         -0.6989    1.5585    1.2130 N.pl3     1 <0>        -0.7189
     10 C8          0.1616    1.0067    0.1635 C.3       1 <0>         0.2889
     11 H1          0.2948   -0.0626    0.3276 H         1 <0>         0.0932
     12 C9          1.5245    1.7029    0.2022 C.3       1 <0>         0.0823
     13 H2          1.3883    2.7773    0.0786 H         1 <0>         0.0842
     14 C10         2.3972    1.1633   -0.9351 C.3       1 <0>         0.1252
     15 H3          2.5746    0.0984   -0.7848 H         1 <0>         0.0807
     16 C11         1.6718    1.3790   -2.2669 C.3       1 <0>         0.0366
     17 H4          2.2610    0.9482   -3.0765 H         1 <0>         0.0797
     18 C12         0.3032    0.6953   -2.2102 C.3       1 <0>         0.0353
     19 O1         -0.4453    1.2211   -1.1123 O.3       1 <0>        -0.3825
     20 O2          1.4973    2.7789   -2.4944 O.3       1 <0>        -0.5437
     21 O3          3.6457    1.8584   -0.9507 O.3       1 <0>        -0.5396
     22 O4          2.1581    1.4430    1.4565 O.3       1 <0>        -0.5441
     23 H5         -4.2205   -1.5195    3.5934 H         1 <0>         0.1329
     24 H6         -2.9295   -2.3679    1.6796 H         1 <0>         0.1320
     25 H7         -1.2793   -0.9335    0.5608 H         1 <0>         0.1299
     26 H8         -3.8722    0.7720    4.4051 H         1 <0>         0.1343
     27 H9         -0.6172    2.4912    1.4666 H         1 <0>         0.4056
     28 H10        -0.2350    0.8817   -3.1396 H         1 <0>         0.1107
     29 H11         0.4384   -0.3781   -2.0772 H         1 <0>         0.0684
     30 H12         1.0436    2.9894   -3.3220 H         1 <0>         0.3816
     31 H13         4.2494    1.5670   -1.6476 H         1 <0>         0.3812
     32 H14         1.6569    1.7550    2.2224 H         1 <0>         0.3812
@<TRIPOS>BOND
     1    1    6 ar
     2    1    2 ar
     3    1   23 1
     4    2    3 ar
     5    2   24 1
     6    3    4 ar
     7    3   25 1
     8    4    5 ar
     9    4    9 1
    10    5    6 ar
    11    5    7 1
    12    6   26 1
    13    7    8 3
    14    9   10 1
    15    9   27 1
    16   10   11 1
    17   10   19 1
    18   10   12 1
    19   12   13 1
    20   12   14 1
    21   12   22 1
    22   14   15 1
    23   14   16 1
    24   14   21 1
    25   16   17 1
    26   16   18 1
    27   16   20 1
    28   18   19 1
    29   18   28 1
    30   18   29 1
    31   20   30 1
    32   21   31 1
    33   22   32 1
@<TRIPOS>MOLECULE
ZINC27522566
   32    34     0     0     0
SMALL
USER_CHARGES
(2R,3R,5S)-2-(4-aminoimidazo[4,5-c]pyridin-1-yl)-5-(hydroxymethyl)tetrahydrofuran-3-ol
@<TRIPOS>ATOM
      1 C1         -2.5106    2.0365    0.0235 C.ar      1 <0>        -0.2305
      2 C2         -3.3577    3.1088    0.0324 C.ar      1 <0>         0.1584
      3 N1         -2.9010    4.3511    0.0372 N.ar      1 <0>        -0.5673
      4 C3         -1.6077    4.6277    0.0405 C.ar      1 <0>         0.4839
      5 C4         -0.6681    3.5857    0.0269 C.ar      1 <0>        -0.0670
      6 C5         -1.1357    2.2600    0.0190 C.ar      1 <0>         0.1290
      7 N2         -0.0178    1.4608    0.0101 N.pl3     1 <0>        -0.4863
      8 C6          1.0687    2.2831    0.0041 C.2       1 <0>         0.2494
      9 N3          0.6862    3.5270    0.0140 N.2       1 <0>        -0.4706
     10 C7          0.0021   -0.0041    0.0020 C.3       1 <0>         0.3143
     11 H1         -0.8310   -0.3187    0.6477 H         1 <0>         0.1137
     12 C8         -0.0502   -0.5346   -1.4479 C.3       1 <0>         0.0833
     13 H2          0.1951    0.2105   -2.2190 H         1 <0>         0.0812
     14 C9          0.8745   -1.7723   -1.4283 C.3       1 <0>        -0.1742
     15 C10         1.3760   -1.8431    0.0311 C.3       1 <0>         0.0845
     16 H3          0.7916   -2.5179    0.6738 H         1 <0>         0.0921
     17 O1          1.2548   -0.4928    0.5289 O.3       1 <0>        -0.3527
     18 C11         2.8368   -2.2964    0.0709 C.3       1 <0>         0.0884
     19 O2          3.2677   -2.3963    1.4297 O.3       1 <0>        -0.5961
     20 O3         -1.3841   -0.9116   -1.7953 O.3       1 <0>        -0.5930
     21 N4         -1.1799    5.9488    0.0437 N.pl3     1 <0>        -0.8567
     22 H4         -2.9017    1.0298    0.0196 H         1 <0>         0.1305
     23 H5         -4.4243    2.9388    0.0358 H         1 <0>         0.1601
     24 H6          2.0964    1.9514   -0.0077 H         1 <0>         0.2132
     25 H7          0.2980   -2.6652   -1.7116 H         1 <0>         0.1021
     26 H8          1.6983   -1.6259   -2.1424 H         1 <0>         0.0931
     27 H9          2.9294   -3.2783   -0.4163 H         1 <0>         0.0640
     28 H10         3.4627   -1.5635   -0.4593 H         1 <0>         0.0531
     29 H11         4.2967   -2.7106    1.6587 H         1 <0>         0.4156
     30 H12        -1.5993   -1.3120   -2.7970 H         1 <0>         0.4216
     31 H13        -0.1042    6.1786    0.0464 H         1 <0>         0.4368
     32 H14        -1.9168    6.7655    0.0435 H         1 <0>         0.4261
@<TRIPOS>BOND
     1    1    6 ar
     2    1    2 ar
     3    1   22 1
     4    2    3 ar
     5    2   23 1
     6    3    4 ar
     7    4    5 ar
     8    4   21 1
     9    5    9 1
    10    5    6 ar
    11    6    7 1
    12    7    8 1
    13    7   10 1
    14    8    9 2
    15    8   24 1
    16   10   11 1
    17   10   17 1
    18   10   12 1
    19   12   13 1
    20   12   14 1
    21   12   20 1
    22   14   15 1
    23   14   25 1
    24   14   26 1
    25   15   16 1
    26   15   17 1
    27   15   18 1
    28   18   19 1
    29   18   27 1
    30   18   28 1
    31   19   29 1
    32   20   30 1
    33   21   31 1
    34   21   32 1
@<TRIPOS>MOLECULE
ZINC40346405
   32    33     0     0     0
SMALL
USER_CHARGES

@<TRIPOS>ATOM
      1 C1         -0.0166    1.3753    0.0096 C.2       1 <0>        -0.1490
      2 C2          1.3172    1.8064   -0.0008 C.2       1 <0>         0.1167
      3 C3          2.1095    0.7027   -0.0143 C.2       1 <0>        -0.0550
      4 N1          1.3186   -0.4036   -0.0127 N.pl3     1 <0>        -0.5362
      5 H1          1.6308   -1.3219   -0.0200 H         1 <0>         0.4157
      6 C4          0.0021   -0.0041    0.0020 C.2       1 <0>        -0.0331
      7 C5         -1.1698   -0.8856    0.0092 C.2       1 <0>         0.5915
      8 O1         -2.2896   -0.4091    0.0231 O.2       1 <0>        -0.5221
      9 N2         -1.0068   -2.2234    0.0004 N.am      1 <0>        -0.7363
     10 C6         -2.1776   -3.1040    0.0076 C.3       1 <0>         0.1343
     11 C7         -1.7181   -4.5634   -0.0049 C.3       1 <0>        -0.1121
     12 H2         -1.0281   -4.7391    0.8203 H         1 <0>         0.1049
     13 C8         -1.0221   -4.8773   -1.3397 C.3       1 <0>        -0.1245
     14 C9         -0.8431   -6.4068   -1.4945 C.3       1 <0>        -0.5801
     15 S1         -2.2448   -7.0791   -0.5117 S.o2      1 <0>         2.3724
     16 O2         -1.7272   -7.8322    0.5765 O.2       1 <0>        -0.9333
     17 O3         -3.1823   -7.6797   -1.3946 O.2       1 <0>        -0.9343
     18 C10        -2.9500   -5.5031    0.1312 C.3       1 <0>        -0.5719
     19 N3          1.7569    3.1433    0.0017 N.pl3     1 <0>        -0.8784
     20 H3         -0.8941    2.0048    0.0253 H         1 <0>         0.1474
     21 H4          3.1894    0.7038   -0.0249 H         1 <0>         0.1676
     22 H5         -0.1143   -2.6032   -0.0107 H         1 <0>         0.3952
     23 H6         -2.7677   -2.9166    0.9046 H         1 <0>         0.0829
     24 H7         -2.7858   -2.9070   -0.8752 H         1 <0>         0.0811
     25 H8         -1.6292   -4.4989   -2.1621 H         1 <0>         0.0927
     26 H9         -0.0450   -4.3947   -1.3606 H         1 <0>         0.0935
     27 H10        -0.9278   -6.7020   -2.5404 H         1 <0>         0.1434
     28 H11         0.1110   -6.7285   -1.0771 H         1 <0>         0.1398
     29 H12        -3.2556   -5.6042    1.1726 H         1 <0>         0.1468
     30 H13        -3.7782   -5.1598   -0.4889 H         1 <0>         0.1455
     31 H14         1.1105    3.8664    0.0115 H         1 <0>         0.3990
     32 H15         2.7064    3.3415   -0.0062 H         1 <0>         0.3959
@<TRIPOS>BOND
     1    1    6 2
     2    1    2 1
     3    1   20 1
     4    2    3 2
     5    2   19 1
     6    3    4 1
     7    3   21 1
     8    4    5 1
     9    4    6 1
    10    6    7 1
    11    7    8 2
    12    7    9 am
    13    9   10 1
    14    9   22 1
    15   10   11 1
    16   10   23 1
    17   10   24 1
    18   11   12 1
    19   11   18 1
    20   11   13 1
    21   13   14 1
    22   13   25 1
    23   13   26 1
    24   14   15 1
    25   14   27 1
    26   14   28 1
    27   15   16 2
    28   15   17 2
    29   15   18 1
    30   18   29 1
    31   18   30 1
    32   19   31 1
    33   19   32 1
@<TRIPOS>MOLECULE
ZINC48758790
   28    29     0     0     0
SMALL
USER_CHARGES

@<TRIPOS>ATOM
      1 C1         -0.0168    1.3887    0.0097 C.ar      1 <0>        -0.1874
      2 C2          1.1510    2.0979    0.0023 C.ar      1 <0>         0.0037
      3 C3          2.3741    1.4258   -0.0129 C.ar      1 <0>        -0.0504
      4 C4          2.3984    0.0223   -0.0206 C.ar      1 <0>         0.0798
      5 C5          1.2081   -0.6872   -0.0131 C.ar      1 <0>        -0.2028
      6 C6          0.0021   -0.0041    0.0020 C.ar      1 <0>         0.2612
      7 N1         -1.2007   -0.7161    0.0101 N.pl3     1 <0>        -0.8629
      8 O1          3.7018   -0.3331   -0.0354 O.3       1 <0>        -0.1911
      9 C7          4.4412    0.7881   -0.0367 C.2       1 <0>        -0.1163
     10 N2          3.6727    1.8348   -0.0235 N.2       1 <0>        -0.3871
     11 S1          6.2026    0.8325   -0.0538 S.o       1 <0>         1.4264
     12 O2          6.5721   -0.4091   -0.6380 O.2       1 <0>        -0.8135
     13 C8          6.6586    0.8342    1.7019 C.3       1 <0>        -0.4515
     14 C9          8.1825    0.8718    1.8330 C.3       1 <0>        -0.1254
     15 C10         8.5614    0.8732    3.2916 C.2       1 <0>         0.5210
     16 O3          7.6976    0.8467    4.1425 O.2       1 <0>        -0.5378
     17 N3          9.8601    0.9038    3.6505 N.am      1 <0>        -0.8561
     18 H1         -0.9615    1.9119    0.0260 H         1 <0>         0.1406
     19 H2          1.1276    3.1776    0.0080 H         1 <0>         0.1434
     20 H3          1.2200   -1.7671   -0.0193 H         1 <0>         0.1348
     21 H4         -2.0459   -0.2403    0.0210 H         1 <0>         0.4060
     22 H5         -1.1901   -1.6860    0.0048 H         1 <0>         0.4040
     23 H6          6.2304    1.7110    2.1877 H         1 <0>         0.1353
     24 H7          6.2752   -0.0684    2.1778 H         1 <0>         0.1037
     25 H8          8.6107   -0.0050    1.3472 H         1 <0>         0.1025
     26 H9          8.5660    1.7744    1.3571 H         1 <0>         0.1123
     27 H10        10.5510    0.9250    2.9699 H         1 <0>         0.4034
     28 H11        10.1040    0.9047    4.5893 H         1 <0>         0.4040
@<TRIPOS>BOND
     1    1    6 ar
     2    1    2 ar
     3    1   18 1
     4    2    3 ar
     5    2   19 1
     6    3   10 1
     7    3    4 ar
     8    4    5 ar
     9    4    8 1
    10    5    6 ar
    11    5   20 1
    12    6    7 1
    13    7   21 1
    14    7   22 1
    15    8    9 1
    16    9   10 2
    17    9   11 1
    18   11   12 2
    19   11   13 1
    20   13   14 1
    21   13   23 1
    22   13   24 1
    23   14   15 1
    24   14   25 1
    25   14   26 1
    26   15   16 2
    27   15   17 am
    28   17   27 1
    29   17   28 1
@<TRIPOS>MOLECULE
ZINC59268785
   30    31     0     0     0
SMALL
USER_CHARGES

@<TRIPOS>ATOM
      1 C1         -0.0178    1.4640    0.0101 C.3       1 <0>         0.3451
      2 N1          1.3620    1.9604   -0.0004 N.am      1 <0>        -0.7384
      3 C2          2.3430    1.2430    0.5795 C.2       1 <0>         0.5547
      4 O1          3.4636    1.7117    0.6674 O.2       1 <0>        -0.5318
      5 C3          2.0809   -0.0515    1.0879 C.2       1 <0>        -0.0961
      6 C4          0.9060   -0.6565    0.8076 C.2       1 <0>         0.1770
      7 N2          0.0021   -0.0041    0.0020 N.pl3     1 <0>        -0.6223
      8 C5         -0.9229   -0.7590   -0.8469 C.3       1 <0>         0.3295
      9 H1         -1.5663   -1.3959   -0.2398 H         1 <0>         0.1082
     10 C6         -0.1435   -1.6036   -1.8869 C.3       1 <0>         0.0693
     11 H2          0.7317   -1.0640   -2.2489 H         1 <0>         0.0906
     12 C7         -1.1906   -1.7773   -3.0139 C.3       1 <0>         0.0444
     13 H3         -0.7187   -1.6791   -3.9915 H         1 <0>         0.0845
     14 C8         -2.1912   -0.6289   -2.7801 C.3       1 <0>         0.0546
     15 H4         -3.1767   -1.0362   -2.5545 H         1 <0>         0.0983
     16 O2         -1.7133    0.1357   -1.6588 O.3       1 <0>        -0.3506
     17 C9         -2.2671    0.2566   -4.0254 C.3       1 <0>         0.0763
     18 O3         -3.2800    1.2481   -3.8439 O.3       1 <0>        -0.5634
     19 O4         -1.8429   -3.0436   -2.8997 O.3       1 <0>        -0.5372
     20 O5          0.2313   -2.8689   -1.3386 O.3       1 <0>        -0.5335
     21 F1          3.0023   -0.6800    1.8503 F         1 <0>        -0.1177
     22 H5         -0.5256    1.8169    0.9077 H         1 <0>         0.0796
     23 H6         -0.5426    1.8265   -0.8738 H         1 <0>         0.1112
     24 H7          1.5685    2.8071   -0.4263 H         1 <0>         0.4146
     25 H8          0.6810   -1.6339    1.2081 H         1 <0>         0.1673
     26 H9         -1.3053    0.7445   -4.1835 H         1 <0>         0.0574
     27 H10        -2.5103   -0.3567   -4.8931 H         1 <0>         0.0654
     28 H11        -3.3839    1.8466   -4.5963 H         1 <0>         0.3861
     29 H12        -2.5096   -3.2055   -3.5811 H         1 <0>         0.3860
     30 H13         0.7215   -3.4336   -1.9517 H         1 <0>         0.3911
@<TRIPOS>BOND
     1    1    7 1
     2    1    2 1
     3    1   22 1
     4    1   23 1
     5    2    3 am
     6    2   24 1
     7    3    4 2
     8    3    5 1
     9    5    6 2
    10    5   21 1
    11    6    7 1
    12    6   25 1
    13    7    8 1
    14    8    9 1
    15    8   16 1
    16    8   10 1
    17   10   11 1
    18   10   12 1
    19   10   20 1
    20   12   13 1
    21   12   14 1
    22   12   19 1
    23   14   15 1
    24   14   16 1
    25   14   17 1
    26   17   18 1
    27   17   26 1
    28   17   27 1
    29   18   28 1
    30   19   29 1
    31   20   30 1
@<TRIPOS>MOLECULE
ZINC04043901
   34    35     0     0     0
SMALL
USER_CHARGES
2-(4-chlorophenoxy)-6-(hydroxymethyl)tetrahydropyran-3,4,5-triol
@<TRIPOS>ATOM
      1 C1         -0.4557    4.1832   -0.2361 C.ar      1 <0>        -0.1697
      2 C2         -0.6560    5.5464   -0.3352 C.ar      1 <0>        -0.0708
      3 C3         -1.3182    6.0714   -1.4309 C.ar      1 <0>        -0.0674
      4 C4         -1.7763    5.2329   -2.4317 C.ar      1 <0>        -0.0747
      5 C5         -1.5734    3.8696   -2.3386 C.ar      1 <0>        -0.1349
      6 C6         -0.9097    3.3414   -1.2409 C.ar      1 <0>         0.1304
      7 O1         -0.7094    2.0003   -1.1474 O.3       1 <0>        -0.2943
      8 C7         -0.0187    1.5267    0.0104 C.3       1 <0>         0.2281
      9 H1         -0.5286    1.8784    0.9073 H         1 <0>         0.0737
     10 C8          0.0021   -0.0041    0.0020 C.3       1 <0>         0.0624
     11 H2          0.4759   -0.3569   -0.9140 H         1 <0>         0.0928
     12 C9          0.7956   -0.5028    1.2136 C.3       1 <0>         0.0864
     13 H3          0.2939   -0.1935    2.1305 H         1 <0>         0.0770
     14 C10         2.2039    0.0979    1.1702 C.3       1 <0>         0.0868
     15 H4          2.7578   -0.2076    2.0579 H         1 <0>         0.0881
     16 C11         2.0981    1.6247    1.1335 C.3       1 <0>         0.1086
     17 H5          1.6159    1.9777    2.0451 H         1 <0>         0.0870
     18 O2          1.3225    2.0200    0.0003 O.3       1 <0>        -0.3676
     19 C12         3.4991    2.2309    1.0297 C.3       1 <0>         0.0890
     20 O3          3.4094    3.6547    1.1126 O.3       1 <0>        -0.5675
     21 O4          2.8839   -0.3631    0.0009 O.3       1 <0>        -0.5454
     22 O5          0.8826   -1.9286    1.1740 O.3       1 <0>        -0.5536
     23 O6         -1.3364   -0.5002    0.0691 O.3       1 <0>        -0.5578
     24 Cl1        -1.5740    7.7843   -1.5504 Cl        1 <0>        -0.0690
     25 H6          0.0576    3.7734    0.6212 H         1 <0>         0.1386
     26 H7         -0.2991    6.2024    0.4449 H         1 <0>         0.1370
     27 H8         -2.2933    5.6445   -3.2860 H         1 <0>         0.1417
     28 H9         -1.9314    3.2155   -3.1198 H         1 <0>         0.1409
     29 H10         4.1178    1.8577    1.8458 H         1 <0>         0.0670
     30 H11         3.9469    1.9500    0.0765 H         1 <0>         0.0700
     31 H12         4.2622    4.1066    1.0538 H         1 <0>         0.3859
     32 H13         2.9826   -1.3241   -0.0435 H         1 <0>         0.3901
     33 H14         0.0253   -2.3757    1.1915 H         1 <0>         0.3964
     34 H15        -1.8974   -0.2188   -0.6666 H         1 <0>         0.3949
@<TRIPOS>BOND
     1    1    6 ar
     2    1    2 ar
     3    1   25 1
     4    2    3 ar
     5    2   26 1
     6    3    4 ar
     7    3   24 1
     8    4    5 ar
     9    4   27 1
    10    5    6 ar
    11    5   28 1
    12    6    7 1
    13    7    8 1
    14    8    9 1
    15    8   18 1
    16    8   10 1
    17   10   11 1
    18   10   12 1
    19   10   23 1
    20   12   13 1
    21   12   14 1
    22   12   22 1
    23   14   15 1
    24   14   16 1
    25   14   21 1
    26   16   17 1
    27   16   18 1
    28   16   19 1
    29   19   20 1
    30   19   29 1
    31   19   30 1
    32   20   31 1
    33   21   32 1
    34   22   33 1
    35   23   34 1
@<TRIPOS>MOLECULE
ZINC17020713
   33    35     0     0     0
SMALL
USER_CHARGES
3-[(2S,3S,4S,5R)-3,4-dihydroxy-5-(hydroxymethyl)tetrahydrofuran-2-yl]-1H-benzimidazole-2-thione
@<TRIPOS>ATOM
      1 C1          2.1505    5.0359    7.2411 C.ar      1 <0>        -0.0976
      2 C2          2.7849    4.0055    6.5685 C.ar      1 <0>        -0.0980
      3 C3          2.5631    3.8141    5.2188 C.ar      1 <0>        -0.0901
      4 C4          1.6972    4.6547    4.5357 C.ar      1 <0>         0.0841
      5 C5          1.0615    5.6974    5.2130 C.ar      1 <0>         0.0771
      6 C6          1.2903    5.8813    6.5682 C.ar      1 <0>        -0.0947
      7 N1          0.2721    6.3622    4.2783 N.pl3     1 <0>        -0.5783
      8 H1         -0.2922    7.1310    4.4560 H         1 <0>         0.4480
      9 C7          0.4250    5.7558    3.0860 C.2       1 <0>         0.5051
     10 S1         -0.3525    6.2245    1.6345 S.2       1 <0>        -0.5546
     11 N2          1.2815    4.7242    3.2086 N.pl3     1 <0>        -0.4709
     12 C8          1.7000    3.8245    2.1309 C.3       1 <0>         0.3226
     13 H2          2.1313    2.9112    2.5407 H         1 <0>         0.1189
     14 C9          2.7099    4.5312    1.1912 C.3       1 <0>         0.0724
     15 H3          2.4468    5.5801    1.0548 H         1 <0>         0.1061
     16 C10         2.5326    3.7412   -0.1283 C.3       1 <0>         0.0551
     17 H4          3.3065    2.9799   -0.2265 H         1 <0>         0.0890
     18 C11         1.1449    3.0852    0.0077 C.3       1 <0>         0.0541
     19 H5          0.5027    3.4028   -0.8138 H         1 <0>         0.1236
     20 O1          0.5893    3.5166    1.2613 O.3       1 <0>        -0.3114
     21 C12         1.2864    1.5618   -0.0018 C.3       1 <0>         0.0556
     22 O2         -0.0110    0.9628    0.0073 O.3       1 <0>        -0.5587
     23 O3          2.5594    4.6272   -1.2492 O.3       1 <0>        -0.5431
     24 O4          4.0439    4.4028    1.6871 O.3       1 <0>        -0.5506
     25 H6          2.3288    5.1790    8.2966 H         1 <0>         0.1420
     26 H7          3.4560    3.3483    7.1016 H         1 <0>         0.1419
     27 H8          3.0595    3.0090    4.6975 H         1 <0>         0.1363
     28 H9          0.7967    6.6836    7.0965 H         1 <0>         0.1394
     29 H10         1.8401    1.2428    0.8812 H         1 <0>         0.0499
     30 H11         1.8231    1.2523   -0.8987 H         1 <0>         0.0617
     31 H12         0.0021   -0.0041    0.0020 H         1 <0>         0.3825
     32 H13         2.3951    4.1932   -2.0976 H         1 <0>         0.3881
     33 H14         4.7206    4.7503    1.0902 H         1 <0>         0.3945
@<TRIPOS>BOND
     1    1    6 ar
     2    1    2 ar
     3    1   25 1
     4    2    3 ar
     5    2   26 1
     6    3    4 ar
     7    3   27 1
     8    4   11 1
     9    4    5 ar
    10    5    6 ar
    11    5    7 1
    12    6   28 1
    13    7    8 1
    14    7    9 1
    15    9   10 2
    16    9   11 1
    17   11   12 1
    18   12   13 1
    19   12   20 1
    20   12   14 1
    21   14   15 1
    22   14   16 1
    23   14   24 1
    24   16   17 1
    25   16   18 1
    26   16   23 1
    27   18   19 1
    28   18   20 1
    29   18   21 1
    30   21   22 1
    31   21   29 1
    32   21   30 1
    33   22   31 1
    34   23   32 1
    35   24   33 1
@<TRIPOS>MOLECULE
ZINC37557476
   27    28     0     0     0
SMALL
USER_CHARGES

@<TRIPOS>ATOM
      1 C1         -0.4135    1.3398    0.1451 C.ar      1 <0>        -0.0949
      2 C2          0.6953    2.1573    0.0610 C.ar      1 <0>        -0.0781
      3 C3          1.9693    1.5966   -0.0502 C.ar      1 <0>        -0.0094
      4 C4          2.1158    0.2091   -0.0759 C.ar      1 <0>        -0.0819
      5 C5          0.9955   -0.6030    0.0092 C.ar      1 <0>         0.1488
      6 C6         -0.2684   -0.0344    0.1197 C.ar      1 <0>        -0.1216
      7 N1          1.1365   -1.9926   -0.0165 N.pl3     1 <0>        -1.0588
      8 S1          0.3227   -2.9279    1.0814 S.o2      1 <0>         2.7229
      9 O1         -1.0437   -2.5448    1.0075 O.2       1 <0>        -0.9529
     10 O2          0.7510   -4.2664    0.8712 O.2       1 <0>        -0.9497
     11 C7          0.8901   -2.4633    2.6835 C.2       1 <0>        -0.8511
     12 C8          0.1457   -1.8906    3.6568 C.2       1 <0>         0.2113
     13 N2          0.9445   -1.6924    4.7264 N.pl3     1 <0>        -0.4479
     14 H1          0.6781   -1.2967    5.5709 H         1 <0>         0.4483
     15 N3          2.2256   -2.1581    4.4038 N.2       1 <0>        -0.3454
     16 C9          2.1939   -2.6274    3.1787 C.2       1 <0>         0.4192
     17 N4          3.2720   -3.1902    2.4856 N.pl3     1 <0>        -0.8390
     18 C10         3.1215    2.4424   -0.1381 C.1       1 <0>         0.2493
     19 N5          4.0354    3.1134   -0.2079 N.1       1 <0>        -0.4065
     20 H2         -1.3976    1.7754    0.2355 H         1 <0>         0.1437
     21 H3          0.5776    3.2307    0.0808 H         1 <0>         0.1374
     22 H4          3.0985   -0.2306   -0.1621 H         1 <0>         0.1387
     23 H5         -1.1399   -0.6688    0.1862 H         1 <0>         0.1644
     24 H6          1.7111   -2.4097   -0.6774 H         1 <0>         0.4285
     25 H7         -0.9019   -1.6369    3.5898 H         1 <0>         0.1994
     26 H8          3.1352   -3.5747    1.6056 H         1 <0>         0.4121
     27 H9          4.1558   -3.1958    2.8853 H         1 <0>         0.4130
@<TRIPOS>BOND
     1    1    6 ar
     2    1    2 ar
     3    1   20 1
     4    2    3 ar
     5    2   21 1
     6    3    4 ar
     7    3   18 1
     8    4    5 ar
     9    4   22 1
    10    5    6 ar
    11    5    7 1
    12    6   23 1
    13    7    8 1
    14    7   24 1
    15    8    9 2
    16    8   10 2
    17    8   11 1
    18   11   16 1
    19   11   12 2
    20   12   13 1
    21   12   25 1
    22   13   14 1
    23   13   15 1
    24   15   16 2
    25   16   17 1
    26   17   26 1
    27   17   27 1
    28   18   19 3
@<TRIPOS>MOLECULE
ZINC42139517
   24    25     0     0     0
SMALL
USER_CHARGES

@<TRIPOS>ATOM
      1 C1         -0.0221    1.3392   -0.2477 C.ar      1 <0>        -0.1125
      2 C2          1.1784    2.0387   -0.2922 C.ar      1 <0>         0.1639
      3 C3          2.3678    1.3654   -0.0400 C.ar      1 <0>         0.0822
      4 N1          2.3744    0.0771    0.2395 N.ar      1 <0>        -0.4558
      5 C4          1.2598   -0.6315    0.2936 C.ar      1 <0>         0.3483
      6 C5          0.0174   -0.0265    0.0519 C.ar      1 <0>        -0.1198
      7 C6         -1.2271   -0.8179    0.1124 C.2       1 <0>         0.5730
      8 O1         -1.2564   -1.9412   -0.3518 O.2       1 <0>        -0.5029
      9 N2         -2.3311   -0.2953    0.6821 N.am      1 <0>        -0.8472
     10 N3          1.3195   -1.9925    0.5931 N.pl3     1 <0>        -0.3120
     11 C7          2.3661   -2.8231    0.3413 C.2       1 <0>         0.1177
     12 C8          2.0254   -4.0559    0.7829 C.2       1 <0>        -0.2342
     13 C9          0.7346   -3.9804    1.3205 C.2       1 <0>         0.0884
     14 N4          0.3142   -2.7464    1.2125 N.2       1 <0>        -0.2419
     15 Br1         3.1024   -5.6074    0.6899 Br        1 <0>        -0.0122
     16 N5          1.1891    3.4059   -0.5881 N.pl3     1 <0>        -0.8617
     17 H1         -0.9613    1.8382   -0.4353 H         1 <0>         0.1497
     18 H2          3.3019    1.9065   -0.0738 H         1 <0>         0.1719
     19 H3         -2.3077    0.6010    1.0525 H         1 <0>         0.3997
     20 H4         -3.1489   -0.8153    0.7219 H         1 <0>         0.4081
     21 H5          3.3000   -2.5487   -0.1268 H         1 <0>         0.1878
     22 H6          0.1818   -4.8006    1.7541 H         1 <0>         0.1972
     23 H7          0.3561    3.8707   -0.7636 H         1 <0>         0.4052
     24 H8          2.0297    3.8891   -0.6178 H         1 <0>         0.4071
@<TRIPOS>BOND
     1    1    6 ar
     2    1    2 ar
     3    1   17 1
     4    2    3 ar
     5    2   16 1
     6    3    4 ar
     7    3   18 1
     8    4    5 ar
     9    5    6 ar
    10    5   10 1
    11    6    7 1
    12    7    8 2
    13    7    9 am
    14    9   19 1
    15    9   20 1
    16   10   14 1
    17   10   11 1
    18   11   12 2
    19   11   21 1
    20   12   13 1
    21   12   15 1
    22   13   14 2
    23   13   22 1
    24   16   23 1
    25   16   24 1
@<TRIPOS>MOLECULE
ZINC51122028
   30    31     0     0     0
SMALL
USER_CHARGES

@<TRIPOS>ATOM
      1 C1          0.0066    1.3876    0.1868 C.ar      1 <0>        -0.0246
      2 C2          1.2125    2.0488    0.3266 C.ar      1 <0>        -0.1950
      3 C3          2.3968    1.3123    0.3479 C.ar      1 <0>         0.4108
      4 N1          2.3761   -0.0032    0.2362 N.ar      1 <0>        -0.4951
      5 C4          1.2355   -0.6715    0.1004 C.ar      1 <0>         0.1366
      6 C5          0.0174    0.0030    0.0715 C.ar      1 <0>        -0.0938
      7 Cl1        -1.4694   -0.8755   -0.1056 Cl        1 <0>        -0.0199
      8 C6          1.2600   -2.1469   -0.0215 C.2       1 <0>         0.5731
      9 O1          0.2192   -2.7744   -0.0165 O.2       1 <0>        -0.5005
     10 N2          2.4365   -2.7940   -0.1379 N.am      1 <0>        -0.5999
     11 C7          2.4953   -4.2601   -0.2650 C.3       1 <0>         0.0932
     12 C8          3.1397   -4.5973   -1.6109 C.3       1 <0>         0.0965
     13 N3          4.3413   -3.8018   -1.8221 N.am      1 <0>        -0.7243
     14 C9          4.6015   -2.6458   -1.2097 C.2       1 <0>         0.5094
     15 O2          5.5997   -2.0346   -1.5274 O.2       1 <0>        -0.5410
     16 C10         3.7131   -2.0645   -0.1495 C.3       1 <0>         0.0586
     17 N4          3.6132    1.9709    0.4877 N.pl3     1 <0>        -0.5644
     18 N5          4.7778    1.2573    0.5095 N.3       1 <0>        -0.5954
     19 H1         -0.9242    1.9351    0.1719 H         1 <0>         0.1558
     20 H2          1.2374    3.1247    0.4181 H         1 <0>         0.1487
     21 H3          3.0955   -4.6755    0.5445 H         1 <0>         0.0834
     22 H4          1.4875   -4.6734   -0.2259 H         1 <0>         0.1152
     23 H5          3.4020   -5.6551   -1.6281 H         1 <0>         0.0921
     24 H6          2.4282   -4.3918   -2.4108 H         1 <0>         0.0709
     25 H7          4.9987   -4.1364   -2.4521 H         1 <0>         0.3993
     26 H8          3.5300   -1.0116   -0.3642 H         1 <0>         0.1933
     27 H9          4.1979   -2.1617    0.8219 H         1 <0>         0.0962
     28 H10         3.6349    2.9372    0.5699 H         1 <0>         0.4162
     29 H11         5.5740    1.8678    0.6161 H         1 <0>         0.3613
     30 H12         4.7592    0.5571    1.2358 H         1 <0>         0.3434
@<TRIPOS>BOND
     1    1    6 ar
     2    1    2 ar
     3    1   19 1
     4    2    3 ar
     5    2   20 1
     6    3    4 ar
     7    3   17 1
     8    4    5 ar
     9    5    6 ar
    10    5    8 1
    11    6    7 1
    12    8    9 2
    13    8   10 am
    14   10   16 1
    15   10   11 1
    16   11   12 1
    17   11   21 1
    18   11   22 1
    19   12   13 1
    20   12   23 1
    21   12   24 1
    22   13   14 am
    23   13   25 1
    24   14   15 2
    25   14   16 1
    26   16   26 1
    27   16   27 1
    28   17   18 1
    29   17   28 1
    30   18   29 1
    31   18   30 1
@<TRIPOS>MOLECULE
ZINC01689527
   33    35     0     0     0
SMALL
USER_CHARGES
2-(3,4-dihydroxyphenyl)-3,7-dihydroxy-chroman-4-one
@<TRIPOS>ATOM
      1 C1         -2.5841    4.9817    0.0618 C.ar      1 <0>        -0.0848
      2 C2         -3.7351    5.7482    0.0677 C.ar      1 <0>        -0.1320
      3 C3         -4.7009    5.5549   -0.9063 C.ar      1 <0>         0.0927
      4 C4         -4.5098    4.5882   -1.8895 C.ar      1 <0>         0.0810
      5 C5         -3.3518    3.8280   -1.8932 C.ar      1 <0>        -0.0952
      6 C6         -2.3941    4.0222   -0.9147 C.ar      1 <0>        -0.0798
      7 C7         -1.1378    3.1900   -0.9167 C.3       1 <0>         0.1529
      8 H1         -0.9392    2.8335   -1.9274 H         1 <0>         0.0991
      9 C8         -1.3165    1.9900    0.0189 C.3       1 <0>         0.0544
     10 H2         -1.5268    2.3147    0.9410 H         1 <0>         0.0944
     11 C9         -0.0144    1.2092    0.0087 C.2       1 <0>         0.3726
     12 O1          0.0021   -0.0041    0.0020 O.2       1 <0>        -0.4282
     13 C10         1.2259    1.9996    0.0011 C.ar      1 <0>        -0.2638
     14 C11         2.4615    1.3906    0.2390 C.ar      1 <0>        -0.0050
     15 C12         3.6025    2.1411    0.2211 C.ar      1 <0>        -0.1870
     16 C13         3.5390    3.5090   -0.0331 C.ar      1 <0>         0.1838
     17 C14         2.3196    4.1273   -0.2676 C.ar      1 <0>        -0.1866
     18 C15         1.1522    3.3811   -0.2506 C.ar      1 <0>         0.1950
     19 O2         -0.0398    3.9839   -0.4674 O.3       1 <0>        -0.2910
     20 O3          4.6797    4.2433   -0.0511 O.3       1 <0>        -0.4925
     21 O4         -2.3836    1.1630   -0.4494 O.3       1 <0>        -0.5336
     22 O5         -5.4552    4.3947   -2.8478 O.3       1 <0>        -0.4845
     23 O6         -5.8336    6.3075   -0.9017 O.3       1 <0>        -0.4872
     24 H3         -1.8318    5.1334    0.8217 H         1 <0>         0.1361
     25 H4         -3.8808    6.4978    0.8314 H         1 <0>         0.1383
     26 H5         -3.1988    3.0809   -2.6579 H         1 <0>         0.1386
     27 H6          2.5137    0.3300    0.4360 H         1 <0>         0.1434
     28 H7          4.5577    1.6720    0.4051 H         1 <0>         0.1417
     29 H8          2.2802    5.1886   -0.4639 H         1 <0>         0.1490
     30 H9          5.0976    4.2994   -0.9214 H         1 <0>         0.4027
     31 H10        -2.5278    0.3684    0.0825 H         1 <0>         0.3965
     32 H11        -5.3316    4.9387   -3.6376 H         1 <0>         0.3888
     33 H12        -5.7644    7.1254   -1.4129 H         1 <0>         0.3903
@<TRIPOS>BOND
     1    1    6 ar
     2    1    2 ar
     3    1   24 1
     4    2    3 ar
     5    2   25 1
     6    3    4 ar
     7    3   23 1
     8    4    5 ar
     9    4   22 1
    10    5    6 ar
    11    5   26 1
    12    6    7 1
    13    7    8 1
    14    7   19 1
    15    7    9 1
    16    9   10 1
    17    9   11 1
    18    9   21 1
    19   11   12 2
    20   11   13 1
    21   13   18 ar
    22   13   14 ar
    23   14   15 ar
    24   14   27 1
    25   15   16 ar
    26   15   28 1
    27   16   17 ar
    28   16   20 1
    29   17   18 ar
    30   17   29 1
    31   18   19 1
    32   20   30 1
    33   21   31 1
    34   22   32 1
    35   23   33 1
@<TRIPOS>MOLECULE
ZINC13544319
   40    42     0     0     0
SMALL
USER_CHARGES
(2R,3R,4S,5R,6R)-2-(hydroxymethyl)-6-(2-naphthyloxy)tetrahydropyran-3,4,5-triol
@<TRIPOS>ATOM
      1 C1         -6.4263    6.2272   -1.5942 C.ar      1 <0>        -0.1277
      2 C2         -5.8053    7.0882   -0.6911 C.ar      1 <0>        -0.1065
      3 C3         -4.9940    6.6078    0.2902 C.ar      1 <0>        -0.1148
      4 C4         -4.7769    5.2230    0.3974 C.ar      1 <0>        -0.0167
      5 C5         -3.9510    4.6909    1.4011 C.ar      1 <0>        -0.1505
      6 C6         -3.7590    3.3406    1.4719 C.ar      1 <0>         0.1303
      7 C7         -4.3831    2.4787    0.5645 C.ar      1 <0>        -0.1719
      8 C8         -5.1928    2.9622   -0.4152 C.ar      1 <0>        -0.0666
      9 C9         -5.4085    4.3475   -0.5211 C.ar      1 <0>        -0.0790
     10 C10        -6.2394    4.8810   -1.5209 C.ar      1 <0>        -0.0951
     11 O1         -2.9555    2.8274    2.4401 O.3       1 <0>        -0.3200
     12 C11        -2.7980    1.4074    2.4672 C.3       1 <0>         0.2140
     13 H1         -3.7783    0.9321    2.4352 H         1 <0>         0.1152
     14 C12        -2.0741    0.9985    3.7527 C.3       1 <0>         0.0659
     15 H2         -1.9895   -0.0875    3.7934 H         1 <0>         0.1004
     16 C13        -0.6748    1.6216    3.7618 C.3       1 <0>         0.0847
     17 H3         -0.7596    2.7082    3.7711 H         1 <0>         0.0816
     18 C14         0.0782    1.1772    2.5041 C.3       1 <0>         0.0903
     19 H4          1.0549    1.6601    2.4746 H         1 <0>         0.0837
     20 C15        -0.7288    1.5792    1.2668 C.3       1 <0>         0.1019
     21 H5         -0.8219    2.6646    1.2302 H         1 <0>         0.0897
     22 O2         -2.0295    0.9915    1.3365 O.3       1 <0>        -0.3548
     23 C16        -0.0127    1.0858    0.0080 C.3       1 <0>         0.0890
     24 O3         -0.7038    1.5592   -1.1497 O.3       1 <0>        -0.5654
     25 O4          0.2461   -0.2418    2.5243 O.3       1 <0>        -0.5492
     26 O5          0.0343    1.1874    4.9240 O.3       1 <0>        -0.5600
     27 O6         -2.8122    1.4627    4.8848 O.3       1 <0>        -0.5512
     28 H6         -7.0651    6.6343   -2.3639 H         1 <0>         0.1230
     29 H7         -5.9707    8.1525   -0.7711 H         1 <0>         0.1236
     30 H8         -4.5191    7.2869    0.9828 H         1 <0>         0.1272
     31 H9         -3.4671    5.3462    2.1103 H         1 <0>         0.1329
     32 H10        -4.2195    1.4141    0.6427 H         1 <0>         0.1333
     33 H11        -5.6681    2.2849   -1.1093 H         1 <0>         0.1314
     34 H12        -6.7269    4.2262   -2.2279 H         1 <0>         0.1266
     35 H13         0.0021   -0.0041    0.0020 H         1 <0>         0.0677
     36 H14         1.0099    1.4631    0.0003 H         1 <0>         0.0633
     37 H15        -0.3044    1.2838   -1.9862 H         1 <0>         0.3832
     38 H16         0.7496   -0.5674    3.2830 H         1 <0>         0.3886
     39 H17        -0.3909    1.4304    5.7578 H         1 <0>         0.3944
     40 H18        -3.7111    1.1104    4.9397 H         1 <0>         0.3874
@<TRIPOS>BOND
     1    1   10 ar
     2    1    2 ar
     3    1   28 1
     4    2    3 ar
     5    2   29 1
     6    3    4 ar
     7    3   30 1
     8    4    9 ar
     9    4    5 ar
    10    5    6 ar
    11    5   31 1
    12    6    7 ar
    13    6   11 1
    14    7    8 ar
    15    7   32 1
    16    8    9 ar
    17    8   33 1
    18    9   10 ar
    19   10   34 1
    20   11   12 1
    21   12   13 1
    22   12   22 1
    23   12   14 1
    24   14   15 1
    25   14   16 1
    26   14   27 1
    27   16   17 1
    28   16   18 1
    29   16   26 1
    30   18   19 1
    31   18   20 1
    32   18   25 1
    33   20   21 1
    34   20   22 1
    35   20   23 1
    36   23   24 1
    37   23   35 1
    38   23   36 1
    39   24   37 1
    40   25   38 1
    41   26   39 1
    42   27   40 1
@<TRIPOS>MOLECULE
ZINC38665082
   38    40     0     0     0
SMALL
USER_CHARGES

@<TRIPOS>ATOM
      1 C1          0.5405    1.4913   -0.1466 C.3       1 <0>        -0.1172
      2 C2          0.4811   -0.0145   -0.1323 C.ar      1 <0>        -0.0742
      3 C3          0.4772   -0.7036   -1.3372 C.ar      1 <0>        -0.0904
      4 C4          0.4233   -2.0848   -1.3317 C.ar      1 <0>        -0.0607
      5 C5          0.3746   -2.7515   -0.1316 C.ar      1 <0>        -0.1732
      6 C6          0.3775   -2.0745    1.1090 C.ar      1 <0>         0.0813
      7 C7          0.4384   -0.6661    1.0621 C.ar      1 <0>        -0.0578
      8 N1          0.3247   -2.9038    2.1717 N.2       1 <0>        -0.4937
      9 C8          0.2765   -4.1973    2.0398 C.2       1 <0>         0.0871
     10 S1          0.2984   -4.4494    0.3758 S.3       1 <0>         0.1238
     11 C9          0.2154   -5.2354    3.1306 C.3       1 <0>         0.1441
     12 H1          0.4817   -4.7777    4.0833 H         1 <0>         0.1127
     13 C10        -1.2037   -5.8033    3.2159 C.3       1 <0>         0.0521
     14 H2         -1.4859   -6.2251    2.2513 H         1 <0>         0.0794
     15 C11        -1.2431   -6.8995    4.2851 C.3       1 <0>         0.0810
     16 H3         -2.2367   -7.3468    4.3123 H         1 <0>         0.0803
     17 C12        -0.2071   -7.9732    3.9383 C.3       1 <0>         0.0894
     18 H4         -0.4692   -8.4388    2.9882 H         1 <0>         0.0908
     19 C13         1.1735   -7.3215    3.8250 C.3       1 <0>         0.1044
     20 H5          1.9079   -8.0734    3.5363 H         1 <0>         0.1280
     21 O1          1.1328   -6.2908    2.8360 O.3       1 <0>        -0.3454
     22 C14         1.5651   -6.7178    5.1752 C.3       1 <0>         0.0415
     23 O2          2.9123   -6.2453    5.1130 O.3       1 <0>        -0.5737
     24 O3         -0.1852   -8.9655    4.9664 O.3       1 <0>        -0.5414
     25 O4         -0.9386   -6.3336    5.5614 O.3       1 <0>        -0.5426
     26 O5         -2.1153   -4.7601    3.5661 O.3       1 <0>        -0.5485
     27 H6          1.5816    1.8140   -0.1353 H         1 <0>         0.0760
     28 H7          0.0539    1.8655   -1.0473 H         1 <0>         0.0724
     29 H8          0.0290    1.8835    0.7324 H         1 <0>         0.0706
     30 H9          0.5155   -0.1645   -2.2722 H         1 <0>         0.1409
     31 H10         0.4192   -2.6342   -2.2615 H         1 <0>         0.1372
     32 H11         0.4474   -0.0996    1.9816 H         1 <0>         0.1346
     33 H12         0.8992   -5.8870    5.4086 H         1 <0>         0.0817
     34 H13         1.4824   -7.4788    5.9512 H         1 <0>         0.0686
     35 H14         3.2285   -5.8489    5.9364 H         1 <0>         0.3802
     36 H15        -1.0307   -9.4166    5.0957 H         1 <0>         0.3865
     37 H16        -1.5526   -5.6409    5.8412 H         1 <0>         0.3870
     38 H17        -2.1386   -4.0293    2.9333 H         1 <0>         0.3869
@<TRIPOS>BOND
     1    1    2 1
     2    1   27 1
     3    1   28 1
     4    1   29 1
     5    2    7 ar
     6    2    3 ar
     7    3    4 ar
     8    3   30 1
     9    4    5 ar
    10    4   31 1
    11    5   10 1
    12    5    6 ar
    13    6    7 ar
    14    6    8 1
    15    7   32 1
    16    8    9 2
    17    9   10 1
    18    9   11 1
    19   11   12 1
    20   11   21 1
    21   11   13 1
    22   13   14 1
    23   13   15 1
    24   13   26 1
    25   15   16 1
    26   15   17 1
    27   15   25 1
    28   17   18 1
    29   17   19 1
    30   17   24 1
    31   19   20 1
    32   19   21 1
    33   19   22 1
    34   22   23 1
    35   22   33 1
    36   22   34 1
    37   23   35 1
    38   24   36 1
    39   25   37 1
    40   26   38 1
@<TRIPOS>MOLECULE
ZINC45651412
   30    31     0     0     0
SMALL
USER_CHARGES

@<TRIPOS>ATOM
      1 C1         -0.0116    1.3738    0.0761 C.ar      1 <0>        -0.1107
      2 C2          1.1758    2.0849    0.0887 C.ar      1 <0>        -0.0819
      3 C3          2.3880    1.4194    0.0856 C.ar      1 <0>        -0.0981
      4 C4          2.4209    0.0387    0.0703 C.ar      1 <0>        -0.0395
      5 C5          1.2261   -0.6845    0.0580 C.ar      1 <0>        -0.1081
      6 C6          0.0064   -0.0051    0.0608 C.ar      1 <0>        -0.0796
      7 C7          1.2528   -2.1620    0.0412 C.2       1 <0>         0.5512
      8 O1          2.3164   -2.7507    0.0380 O.2       1 <0>        -0.4972
      9 N1          0.0980   -2.8568    0.0293 N.am      1 <0>        -0.5189
     10 N2          0.1233   -4.2575    0.0133 N.am      1 <0>        -0.4936
     11 C8         -1.0315   -4.9523    0.0015 C.2       1 <0>         0.5947
     12 O2         -2.0951   -4.3636    0.0047 O.2       1 <0>        -0.5474
     13 C9         -1.0048   -6.4293   -0.0154 C.ar      1 <0>        -0.0568
     14 C10        -2.2008   -7.1581    0.0906 C.ar      1 <0>         0.4212
     15 N3         -2.1652   -8.4855    0.0739 N.ar      1 <0>        -0.5068
     16 C11        -1.0091   -9.1133   -0.0420 C.ar      1 <0>         0.1502
     17 C12         0.1721   -8.3927   -0.1462 C.ar      1 <0>        -0.0185
     18 N4          0.1513   -7.0754   -0.1366 N.ar      1 <0>        -0.3709
     19 N5         -3.4091   -6.4968    0.2122 N.pl3     1 <0>        -0.8131
     20 Br1         4.0792   -0.8701    0.0655 Br        1 <0>        -0.0035
     21 H1         -0.9546    1.9001    0.0829 H         1 <0>         0.1399
     22 H2          1.1556    3.1647    0.1007 H         1 <0>         0.1405
     23 H3          3.3108    1.9803    0.0948 H         1 <0>         0.1434
     24 H4         -0.9212   -0.5583    0.0513 H         1 <0>         0.1353
     25 H5         -0.7507   -2.3871    0.0319 H         1 <0>         0.4302
     26 H6          0.9720   -4.7272    0.0108 H         1 <0>         0.4457
     27 H7         -0.9829  -10.1929   -0.0553 H         1 <0>         0.1805
     28 H8          1.1130   -8.9145   -0.2402 H         1 <0>         0.1785
     29 H9         -3.4414   -5.5296    0.1464 H         1 <0>         0.4280
     30 H10        -4.2244   -7.0001    0.3634 H         1 <0>         0.4052
@<TRIPOS>BOND
     1    1    6 ar
     2    1    2 ar
     3    1   21 1
     4    2    3 ar
     5    2   22 1
     6    3    4 ar
     7    3   23 1
     8    4    5 ar
     9    4   20 1
    10    5    6 ar
    11    5    7 1
    12    6   24 1
    13    7    8 2
    14    7    9 am
    15    9   10 1
    16    9   25 1
    17   10   11 am
    18   10   26 1
    19   11   12 2
    20   11   13 1
    21   13   18 ar
    22   13   14 ar
    23   14   15 ar
    24   14   19 1
    25   15   16 ar
    26   16   17 ar
    27   16   27 1
    28   17   18 ar
    29   17   28 1
    30   19   29 1
    31   19   30 1
@<TRIPOS>MOLECULE
ZINC59973697
   38    40     0     0     0
SMALL
USER_CHARGES

@<TRIPOS>ATOM
      1 C1         -0.0168    1.3844    0.0097 C.ar      1 <0>        -0.0931
      2 C2          1.1470    2.0965    0.0024 C.ar      1 <0>        -0.1199
      3 C3          2.3786    1.4259   -0.0130 C.ar      1 <0>        -0.0784
      4 C4          3.7243    1.8658   -0.0239 C.2       1 <0>        -0.1028
      5 C5          4.5200    0.7643   -0.0378 C.2       1 <0>         0.0117
      6 N1          3.7274   -0.3662   -0.0360 N.pl3     1 <0>        -0.5768
      7 H1          4.0488   -1.2814   -0.0435 H         1 <0>         0.4120
      8 C6          2.4065    0.0194   -0.0209 C.ar      1 <0>         0.0591
      9 C7          1.2024   -0.6910   -0.0128 C.ar      1 <0>         0.2087
     10 C8          0.0021   -0.0041    0.0020 C.ar      1 <0>        -0.1823
     11 N2          1.2117   -2.0894   -0.0206 N.pl3     1 <0>        -0.8830
     12 C9          5.9906    0.7748   -0.0527 C.2       1 <0>         0.5885
     13 O1          6.5913    1.8326   -0.0529 O.2       1 <0>        -0.5125
     14 N3          6.6727   -0.3875   -0.0662 N.am      1 <0>        -0.7245
     15 C10         8.1375   -0.3770   -0.0811 C.3       1 <0>         0.1272
     16 C11         8.6536   -0.2254    1.3468 C.3       1 <0>        -0.1254
     17 C12        10.1580    0.0574    1.3316 C.3       1 <0>        -0.5992
     18 S1         11.0174   -1.3707    0.6074 S.o2      1 <0>         2.4140
     19 O2         10.7595   -2.5107    1.4155 O.2       1 <0>        -0.9328
     20 O3         12.3631   -1.0005    0.3405 O.2       1 <0>        -0.9367
     21 C13        10.1462   -1.5745   -0.9744 C.3       1 <0>        -0.6021
     22 C14         8.6431   -1.6757   -0.7025 C.3       1 <0>        -0.1217
     23 H2         -0.9623    1.9059    0.0260 H         1 <0>         0.1249
     24 H3          1.1198    3.1762    0.0081 H         1 <0>         0.1242
     25 H4          4.0585    2.8928   -0.0220 H         1 <0>         0.1576
     26 H5         -0.9285   -0.5522    0.0083 H         1 <0>         0.1258
     27 H6          2.0548   -2.5688   -0.0316 H         1 <0>         0.3911
     28 H7          0.3749   -2.5800   -0.0149 H         1 <0>         0.4030
     29 H8          6.1936   -1.2310   -0.0661 H         1 <0>         0.3990
     30 H9          8.4844    0.4658   -0.6789 H         1 <0>         0.1053
     31 H10         8.1349    0.6007    1.8332 H         1 <0>         0.0967
     32 H11         8.4639   -1.1455    1.8997 H         1 <0>         0.0891
     33 H12        10.3564    0.9456    0.7318 H         1 <0>         0.1385
     34 H13        10.5098    0.2169    2.3509 H         1 <0>         0.1418
     35 H14        10.3445   -0.7144   -1.6139 H         1 <0>         0.1388
     36 H15        10.4903   -2.4844   -1.4661 H         1 <0>         0.1432
     37 H16         8.4541   -2.5022   -0.0174 H         1 <0>         0.0935
     38 H17         8.1172   -1.8571   -1.6398 H         1 <0>         0.0974
@<TRIPOS>BOND
     1    1   10 ar
     2    1    2 ar
     3    1   23 1
     4    2    3 ar
     5    2   24 1
     6    3    8 ar
     7    3    4 1
     8    4    5 2
     9    4   25 1
    10    5    6 1
    11    5   12 1
    12    6    7 1
    13    6    8 1
    14    8    9 ar
    15    9   10 ar
    16    9   11 1
    17   10   26 1
    18   11   27 1
    19   11   28 1
    20   12   13 2
    21   12   14 am
    22   14   15 1
    23   14   29 1
    24   15   22 1
    25   15   16 1
    26   15   30 1
    27   16   17 1
    28   16   31 1
    29   16   32 1
    30   17   18 1
    31   17   33 1
    32   17   34 1
    33   18   19 2
    34   18   20 2
    35   18   21 1
    36   21   22 1
    37   21   35 1
    38   21   36 1
    39   22   37 1
    40   22   38 1
@<TRIPOS>MOLECULE
ZINC00074898
   39    42     0     0     0
SMALL
USER_CHARGES
amino-ethyl-oxo-BLAHcarbonitrile
@<TRIPOS>ATOM
      1 C1          3.5845    3.7728   -1.4493 C.3       1 <0>        -0.1499
      2 C2          3.0746    3.7260   -0.0075 C.3       1 <0>        -0.0788
      3 C3          1.6424    3.2575    0.0038 C.ar      1 <0>        -0.1040
      4 C4          0.5881    4.1579    0.0184 C.ar      1 <0>        -0.0834
      5 C5         -0.7274    3.7425    0.0286 C.ar      1 <0>        -0.1425
      6 C6         -1.0604    2.3919    0.0200 C.ar      1 <0>        -0.0501
      7 C7         -0.0182    1.4907    0.0102 C.ar      1 <0>        -0.1240
      8 C8          1.3219    1.8994   -0.0004 C.ar      1 <0>         0.1515
      9 N1          2.1602    0.7986   -0.0142 N.am      1 <0>        -0.6606
     10 C9          1.4715   -0.3623   -0.0145 C.2       1 <0>         0.5390
     11 O1          1.9416   -1.4803   -0.0259 O.2       1 <0>        -0.4834
     12 C10         0.0021   -0.0041    0.0020 C.3       1 <0>         0.1273
     13 C11        -0.6574   -0.5659    1.2322 C.2       1 <0>        -0.2856
     14 C12        -1.8258   -1.2063    1.2048 C.2       1 <0>         0.3439
     15 N2         -2.2326   -1.6326    2.4552 N.pl3     1 <0>        -0.7216
     16 C13        -1.2339   -1.2451    3.4610 C.3       1 <0>         0.1300
     17 C14        -0.1477   -0.5136    2.6482 C.3       1 <0>        -0.0677
     18 O2         -2.5134   -1.3971    0.0401 O.3       1 <0>        -0.2470
     19 C15        -1.8703   -1.1998   -1.1253 C.2       1 <0>         0.4608
     20 C16        -0.6834   -0.5525   -1.2188 C.2       1 <0>        -0.2581
     21 C17        -0.0716   -0.3872   -2.5029 C.1       1 <0>         0.2681
     22 N3          0.4137   -0.2561   -3.5216 N.1       1 <0>        -0.4327
     23 N4         -2.4449   -1.6781   -2.2765 N.pl3     1 <0>        -0.8269
     24 H1          3.5245    2.7769   -1.8884 H         1 <0>         0.0521
     25 H2          2.9718    4.4631   -2.0292 H         1 <0>         0.0591
     26 H3          4.6205    4.1116   -1.4576 H         1 <0>         0.0604
     27 H4          3.1347    4.7218    0.4316 H         1 <0>         0.0789
     28 H5          3.6873    3.0357    0.5723 H         1 <0>         0.0679
     29 H6          0.8033    5.2162    0.0216 H         1 <0>         0.1253
     30 H7         -1.5152    4.4813    0.0393 H         1 <0>         0.1252
     31 H8         -2.0896    2.0643    0.0238 H         1 <0>         0.1309
     32 H9          3.1286    0.8546   -0.0222 H         1 <0>         0.4128
     33 H10        -3.0534   -2.1152    2.6407 H         1 <0>         0.4187
     34 H11        -0.8181   -2.1281    3.9463 H         1 <0>         0.0791
     35 H12        -1.6751   -0.5749    4.1987 H         1 <0>         0.0802
     36 H13         0.8066   -1.0338    2.7305 H         1 <0>         0.0800
     37 H14        -0.0512    0.5195    2.9819 H         1 <0>         0.0841
     38 H15        -3.2942   -2.1451   -2.2368 H         1 <0>         0.4130
     39 H16        -2.0018   -1.5489   -3.1296 H         1 <0>         0.4280
@<TRIPOS>BOND
     1    1    2 1
     2    1   24 1
     3    1   25 1
     4    1   26 1
     5    2    3 1
     6    2   27 1
     7    2   28 1
     8    3    8 ar
     9    3    4 ar
    10    4    5 ar
    11    4   29 1
    12    5    6 ar
    13    5   30 1
    14    6    7 ar
    15    6   31 1
    16    7   12 1
    17    7    8 ar
    18    8    9 1
    19    9   10 am
    20    9   32 1
    21   10   11 2
    22   10   12 1
    23   12   20 1
    24   12   13 1
    25   13   17 1
    26   13   14 2
    27   14   15 1
    28   14   18 1
    29   15   16 1
    30   15   33 1
    31   16   17 1
    32   16   34 1
    33   16   35 1
    34   17   36 1
    35   17   37 1
    36   18   19 1
    37   19   20 2
    38   19   23 1
    39   20   21 1
    40   21   22 3
    41   23   38 1
    42   23   39 1
@<TRIPOS>MOLECULE
ZINC09092345
   28    29     0     0     0
SMALL
USER_CHARGES
2-[[4-amino-5-(2-bromophenyl)-1,2,4-triazol-3-yl]sulfanyl]acetamide
@<TRIPOS>ATOM
      1 C1         -0.5118    0.8757    4.3693 C.ar      1 <0>        -0.1000
      2 C2          0.4950    0.3390    5.1525 C.ar      1 <0>        -0.0985
      3 C3          1.3805   -0.5794    4.6181 C.ar      1 <0>        -0.0879
      4 C4          1.2609   -0.9714    3.2995 C.ar      1 <0>        -0.0582
      5 C5          0.2503   -0.4294    2.5027 C.ar      1 <0>         0.0127
      6 C6         -0.6392    0.4972    3.0490 C.ar      1 <0>        -0.1030
      7 C7          0.1193   -0.8399    1.0886 C.2       1 <0>         0.1844
      8 N1          0.1432   -2.0687    0.6274 N.2       1 <0>        -0.2298
      9 N2          0.0014   -2.0608   -0.6498 N.2       1 <0>        -0.2805
     10 C8         -0.1277   -0.8262   -1.0819 C.2       1 <0>         0.1192
     11 N3         -0.0511   -0.0061    0.0075 N.pl3     1 <0>        -0.2020
     12 N4         -0.1327    1.3574    0.0216 N.3       1 <0>        -0.7628
     13 S1         -0.3530   -0.3227   -2.7554 S.3       1 <0>         0.0757
     14 C9         -0.3494   -1.9377   -3.5726 C.3       1 <0>        -0.1475
     15 C10        -0.5334   -1.7501   -5.0566 C.2       1 <0>         0.5385
     16 O1         -0.6549   -0.6344   -5.5163 O.2       1 <0>        -0.5382
     17 N5         -0.5628   -2.8222   -5.8728 N.am      1 <0>        -0.8688
     18 Br1         2.4674   -2.2329    2.5725 Br        1 <0>        -0.0205
     19 H1         -1.1997    1.5923    4.7930 H         1 <0>         0.1381
     20 H2          0.5901    0.6390    6.1857 H         1 <0>         0.1390
     21 H3          2.1642   -0.9941    5.2346 H         1 <0>         0.1419
     22 H4         -1.4253    0.9173    2.4391 H         1 <0>         0.1334
     23 H5         -0.2705    1.9099   -0.9195 H         1 <0>         0.4508
     24 H6         -0.0606    1.9029    0.9741 H         1 <0>         0.4477
     25 H7          0.6093   -2.4425   -3.3829 H         1 <0>         0.1292
     26 H8         -1.1716   -2.5513   -3.1758 H         1 <0>         0.1292
     27 H9         -0.6971   -2.6853   -6.9560 H         1 <0>         0.4310
     28 H10        -0.4525   -3.8341   -5.4558 H         1 <0>         0.4267
@<TRIPOS>BOND
     1    1    6 ar
     2    1    2 ar
     3    1   19 1
     4    2    3 ar
     5    2   20 1
     6    3    4 ar
     7    3   21 1
     8    4    5 ar
     9    4   18 1
    10    5    6 ar
    11    5    7 1
    12    6   22 1
    13    7   11 1
    14    7    8 2
    15    8    9 1
    16    9   10 2
    17   10   11 1
    18   10   13 1
    19   11   12 1
    20   12   23 1
    21   12   24 1
    22   13   14 1
    23   14   15 1
    24   14   25 1
    25   14   26 1
    26   15   16 2
    27   15   17 am
    28   17   27 1
    29   17   28 1
@<TRIPOS>MOLECULE
ZINC40348887
   34    35     0     0     0
SMALL
USER_CHARGES

@<TRIPOS>ATOM
      1 C1         -0.0166    1.3750    0.0096 C.ar      1 <0>        -0.1196
      2 C2          1.1704    2.0863    0.0021 C.ar      1 <0>        -0.0720
      3 C3          2.3830    1.4207   -0.0135 C.ar      1 <0>        -0.1032
      4 C4          2.4164    0.0414   -0.0213 C.ar      1 <0>        -0.0516
      5 C5          1.2226   -0.6825   -0.0133 C.ar      1 <0>        -0.0265
      6 C6          0.0021   -0.0041    0.0020 C.ar      1 <0>        -0.0618
      7 C7          1.2496   -2.1142   -0.0218 C.1       1 <0>         0.2479
      8 N1          1.2711   -3.2500   -0.0285 N.1       1 <0>        -0.4070
      9 C8          3.6705    2.2039   -0.0226 C.3       1 <0>         0.1563
     10 N2          4.1017    2.4507    1.3556 N.pl3     1 <0>        -1.1142
     11 S1          5.6493    2.9542    1.6613 S.o2      1 <0>         2.6950
     12 O1          5.7490    3.1293    3.0680 O.2       1 <0>        -0.9541
     13 O2          6.5097    2.0838    0.9392 O.2       1 <0>        -0.9506
     14 C9          5.8293    4.5521    0.9409 C.ar      1 <0>        -0.6365
     15 C10         6.2603    4.6742   -0.3671 C.ar      1 <0>        -0.0651
     16 C11         6.4029    5.9255   -0.9380 C.ar      1 <0>        -0.1157
     17 C12         6.1140    7.0611   -0.1996 C.ar      1 <0>         0.0821
     18 C13         5.6797    6.9390    1.1185 C.ar      1 <0>         0.1772
     19 C14         5.5338    5.6801    1.6829 C.ar      1 <0>        -0.0867
     20 N3          5.3867    8.0831    1.8696 N.pl3     1 <0>        -0.8700
     21 O3          6.2543    8.2926   -0.7598 O.3       1 <0>        -0.4915
     22 H1         -0.9598    1.9010    0.0260 H         1 <0>         0.1374
     23 H2          1.1500    3.1661    0.0081 H         1 <0>         0.1342
     24 H3          3.3637   -0.4770   -0.0339 H         1 <0>         0.1385
     25 H4         -0.9250   -0.5580    0.0083 H         1 <0>         0.1354
     26 H5          4.4382    1.6350   -0.5471 H         1 <0>         0.0948
     27 H6          3.5132    3.1556   -0.5301 H         1 <0>         0.0816
     28 H7          3.4806    2.3192    2.0890 H         1 <0>         0.4220
     29 H8          6.4864    3.7899   -0.9444 H         1 <0>         0.1434
     30 H9          6.7401    6.0174   -1.9599 H         1 <0>         0.1402
     31 H10         5.1931    5.5817    2.7030 H         1 <0>         0.1429
     32 H11         5.4859    8.9625    1.4726 H         1 <0>         0.4046
     33 H12         5.0844    7.9965    2.7873 H         1 <0>         0.4031
     34 H13         5.4574    8.6171   -1.2010 H         1 <0>         0.3896
@<TRIPOS>BOND
     1    1    6 ar
     2    1    2 ar
     3    1   22 1
     4    2    3 ar
     5    2   23 1
     6    3    4 ar
     7    3    9 1
     8    4    5 ar
     9    4   24 1
    10    5    6 ar
    11    5    7 1
    12    6   25 1
    13    7    8 3
    14    9   10 1
    15    9   26 1
    16    9   27 1
    17   10   11 1
    18   10   28 1
    19   11   12 2
    20   11   13 2
    21   11   14 1
    22   14   19 ar
    23   14   15 ar
    24   15   16 ar
    25   15   29 1
    26   16   17 ar
    27   16   30 1
    28   17   18 ar
    29   17   21 1
    30   18   19 ar
    31   18   20 1
    32   19   31 1
    33   20   32 1
    34   20   33 1
    35   21   34 1
@<TRIPOS>MOLECULE
ZINC48908727
   35    35     0     0     0
SMALL
USER_CHARGES

@<TRIPOS>ATOM
      1 C1         -0.0010    1.4954    0.0886 C.3       1 <0>        -0.1638
      2 C2          0.0149   -0.0344    0.0666 C.3       1 <0>         0.1342
      3 C3          0.7496   -0.5546    1.3037 C.3       1 <0>        -0.1673
      4 N1         -1.3611   -0.5372    0.0684 N.am      1 <0>        -0.6887
      5 C4         -1.6343   -1.7548   -0.4406 C.2       1 <0>         0.5221
      6 O1         -0.7405   -2.4347   -0.9004 O.2       1 <0>        -0.5124
      7 C5         -3.0380   -2.2677   -0.4388 C.2       1 <0>         0.5103
      8 O2         -3.9318   -1.5878    0.0210 O.2       1 <0>        -0.5050
      9 N2         -3.3112   -3.4854   -0.9478 N.am      1 <0>        -0.5034
     10 N3         -4.6272   -3.9662   -0.9461 N.am      1 <0>        -0.5193
     11 C6         -4.9004   -5.1839   -1.4551 C.2       1 <0>         0.7185
     12 O3         -6.0424   -5.6012   -1.4536 O.2       1 <0>        -0.5409
     13 N4         -3.9077   -5.9390   -1.9658 N.am      1 <0>        -0.6785
     14 C7         -4.1696   -7.2486   -2.3860 C.ar      1 <0>         0.1729
     15 C8         -5.2369   -7.9526   -1.8447 C.ar      1 <0>        -0.1192
     16 C9         -5.4931   -9.2442   -2.2616 C.ar      1 <0>        -0.0900
     17 C10        -4.6879   -9.8371   -3.2169 C.ar      1 <0>        -0.1237
     18 C11        -3.6240   -9.1395   -3.7584 C.ar      1 <0>        -0.0867
     19 C12        -3.3655   -7.8445   -3.3498 C.ar      1 <0>        -0.0698
     20 Cl1        -2.0337   -6.9665   -4.0347 Cl        1 <0>        -0.0638
     21 H1          1.0228    1.8695    0.0873 H         1 <0>         0.0796
     22 H2         -0.5244    1.8660   -0.7927 H         1 <0>         0.0654
     23 H3         -0.5128    1.8405    0.9870 H         1 <0>         0.0654
     24 H4          0.5267   -0.3795   -0.8318 H         1 <0>         0.0960
     25 H5          1.7734   -0.1806    1.3024 H         1 <0>         0.0731
     26 H6          0.2379   -0.2095    2.2021 H         1 <0>         0.0611
     27 H7          0.7610   -1.6445    1.2880 H         1 <0>         0.0624
     28 H8         -2.0756    0.0063    0.4359 H         1 <0>         0.4149
     29 H9         -2.5968   -4.0289   -1.3153 H         1 <0>         0.4324
     30 H10        -5.3416   -3.4227   -0.5785 H         1 <0>         0.4506
     31 H11        -3.0117   -5.5752   -2.0422 H         1 <0>         0.4061
     32 H12        -5.8660   -7.4908   -1.0982 H         1 <0>         0.1569
     33 H13        -6.3233   -9.7920   -1.8407 H         1 <0>         0.1355
     34 H14        -4.8902  -10.8475   -3.5404 H         1 <0>         0.1355
     35 H15        -2.9968   -9.6054   -4.5039 H         1 <0>         0.1396
@<TRIPOS>BOND
     1    1    2 1
     2    1   21 1
     3    1   22 1
     4    1   23 1
     5    2    3 1
     6    2    4 1
     7    2   24 1
     8    3   25 1
     9    3   26 1
    10    3   27 1
    11    4    5 am
    12    4   28 1
    13    5    6 2
    14    5    7 1
    15    7    8 2
    16    7    9 am
    17    9   10 1
    18    9   29 1
    19   10   11 am
    20   10   30 1
    21   11   12 2
    22   11   13 am
    23   13   14 1
    24   13   31 1
    25   14   19 ar
    26   14   15 ar
    27   15   16 ar
    28   15   32 1
    29   16   17 ar
    30   16   33 1
    31   17   18 ar
    32   17   34 1
    33   18   19 ar
    34   18   35 1
    35   19   20 1
@<TRIPOS>MOLECULE
ZINC52015821
   39    41     0     0     0
SMALL
USER_CHARGES

@<TRIPOS>ATOM
      1 C1         -0.0164    1.3568    0.0095 C.2       1 <0>        -0.0663
      2 C2          1.1938    2.0685    0.0018 C.2       1 <0>        -0.1531
      3 C3          2.3716    1.4083   -0.0135 C.2       1 <0>         0.0716
      4 N1          2.4036    0.0447   -0.0216 N.pl3     1 <0>        -0.3024
      5 C4          1.2390   -0.6775   -0.0139 C.2       1 <0>         0.3018
      6 C5          0.0021   -0.0041    0.0020 C.2       1 <0>        -0.1080
      7 N2          1.5517   -1.9672   -0.0251 N.2       1 <0>        -0.5404
      8 C6          2.8829   -2.0971   -0.0398 C.2       1 <0>         0.4541
      9 C7          3.4363   -0.8573   -0.0379 C.2       1 <0>        -0.7211
     10 S1          5.1571   -0.4788   -0.0540 S.o2      1 <0>         2.7306
     11 O1          5.8153   -1.6045   -0.6186 O.2       1 <0>        -0.9472
     12 O2          5.2804    0.8280   -0.5985 O.2       1 <0>        -0.9630
     13 N3          5.6522   -0.3829    1.5233 N.pl3     1 <0>        -1.1009
     14 C8          5.6195   -1.5745    2.3750 C.3       1 <0>         0.1625
     15 H1          5.6834   -2.4674    1.7531 H         1 <0>         0.0950
     16 C9          4.3118   -1.5983    3.1689 C.3       1 <0>        -0.1393
     17 C10         4.2222   -0.3449    4.0418 C.3       1 <0>        -0.1186
     18 C11         5.4063   -0.3122    5.0102 C.3       1 <0>        -0.1191
     19 C12         6.7140   -0.2883    4.2163 C.3       1 <0>        -0.1539
     20 C13         6.8036   -1.5417    3.3435 C.3       1 <0>         0.1034
     21 H2          6.7793   -2.4283    3.9771 H         1 <0>         0.0703
     22 O3          8.0249   -1.5195    2.6020 O.3       1 <0>        -0.5583
     23 N4          3.5870   -3.3078   -0.0539 N.pl3     1 <0>        -0.8355
     24 H3         -0.9573    1.8867    0.0258 H         1 <0>         0.1501
     25 H4          1.1827    3.1485    0.0077 H         1 <0>         0.1593
     26 H5          3.2969    1.9652   -0.0197 H         1 <0>         0.1783
     27 H6         -0.9226   -0.5620    0.0075 H         1 <0>         0.1571
     28 H7          5.9637    0.4622    1.8834 H         1 <0>         0.4180
     29 H8          3.4683   -1.6216    2.4789 H         1 <0>         0.0737
     30 H9          4.2876   -2.4849    3.8025 H         1 <0>         0.0800
     31 H10         4.2465    0.5416    3.4081 H         1 <0>         0.0637
     32 H11         3.2906   -0.3619    4.6073 H         1 <0>         0.0666
     33 H12         5.3424    0.5807    5.6321 H         1 <0>         0.0682
     34 H13         5.3820   -1.1987    5.6439 H         1 <0>         0.0665
     35 H14         6.7382    0.5982    3.5827 H         1 <0>         0.0712
     36 H15         7.5575   -0.2650    4.9063 H         1 <0>         0.0712
     37 H16         8.8193   -1.4981    3.1530 H         1 <0>         0.3807
     38 H17         3.1047   -4.1494   -0.0539 H         1 <0>         0.4131
     39 H18         4.5570   -3.3047   -0.0637 H         1 <0>         0.4202
@<TRIPOS>BOND
     1    1    6 2
     2    1    2 1
     3    1   24 1
     4    2    3 2
     5    2   25 1
     6    3    4 1
     7    3   26 1
     8    4    9 1
     9    4    5 1
    10    5    6 1
    11    5    7 2
    12    6   27 1
    13    7    8 1
    14    8    9 2
    15    8   23 1
    16    9   10 1
    17   10   11 2
    18   10   12 2
    19   10   13 1
    20   13   14 1
    21   13   28 1
    22   14   15 1
    23   14   20 1
    24   14   16 1
    25   16   17 1
    26   16   29 1
    27   16   30 1
    28   17   18 1
    29   17   31 1
    30   17   32 1
    31   18   19 1
    32   18   33 1
    33   18   34 1
    34   19   20 1
    35   19   35 1
    36   19   36 1
    37   20   21 1
    38   20   22 1
    39   22   37 1
    40   23   38 1
    41   23   39 1
@<TRIPOS>MOLECULE
ZINC00002158
   31    33     0     0     0
SMALL
USER_CHARGES
9-[3,4-dihydroxy-5-(hydroxymethyl)tetrahydrofuran-2-yl]-1H-purine-6-thione
@<TRIPOS>ATOM
      1 C1          1.0991    3.7743    0.0114 C.2       1 <0>         0.3699
      2 N1          1.1291    2.4176    0.0043 N.pl3     1 <0>        -0.5740
      3 H1          1.9813    1.9544   -0.0057 H         1 <0>         0.4409
      4 C2         -0.0211    1.7077    0.0114 C.2       1 <0>         0.3582
      5 S1          0.0021   -0.0041    0.0020 S.2       1 <0>        -0.5177
      6 C3         -1.2462    2.4185    0.0210 C.2       1 <0>        -0.0244
      7 C4         -1.2047    3.8163    0.0335 C.2       1 <0>         0.2765
      8 N2         -0.0195    4.4435    0.0256 N.2       1 <0>        -0.4850
      9 N3         -2.5072    4.2347    0.0486 N.pl3     1 <0>        -0.4502
     10 C5         -3.2946    3.1225    0.0503 C.2       1 <0>         0.2622
     11 N4         -2.5493    2.0547    0.0373 N.2       1 <0>        -0.4190
     12 C6         -2.9707    5.6244    0.0613 C.3       1 <0>         0.3067
     13 H2         -2.3247    6.2448   -0.5599 H         1 <0>         0.1276
     14 C7         -3.0072    6.1659    1.5076 C.3       1 <0>         0.0789
     15 H3         -3.1046    5.3465    2.2198 H         1 <0>         0.0878
     16 C8         -4.2638    7.0642    1.5406 C.3       1 <0>         0.0478
     17 H4         -4.9826    6.6889    2.2691 H         1 <0>         0.0893
     18 C9         -4.8379    6.9592    0.1103 C.3       1 <0>         0.0506
     19 H5         -4.4799    7.7854   -0.5039 H         1 <0>         0.1019
     20 O1         -4.3382    5.7025   -0.3966 O.3       1 <0>        -0.3441
     21 C10        -6.3674    6.9471    0.1498 C.3       1 <0>         0.0815
     22 O2         -6.8785    6.9671   -1.1845 O.3       1 <0>        -0.5636
     23 O3         -3.9063    8.4146    1.8416 O.3       1 <0>        -0.5388
     24 O4         -1.8348    6.9346    1.7842 O.3       1 <0>        -0.5270
     25 H6          2.0326    4.3174    0.0054 H         1 <0>         0.2302
     26 H7         -4.3745    3.1260    0.0610 H         1 <0>         0.2332
     27 H8         -6.7106    6.0454    0.6569 H         1 <0>         0.0623
     28 H9         -6.7238    7.8250    0.6886 H         1 <0>         0.0682
     29 H10        -7.8441    6.9608   -1.2360 H         1 <0>         0.3881
     30 H11        -4.6577    9.0223    1.8750 H         1 <0>         0.3890
     31 H12        -1.8055    7.2991    2.6794 H         1 <0>         0.3932
@<TRIPOS>BOND
     1    1    8 2
     2    1    2 1
     3    1   25 1
     4    2    3 1
     5    2    4 1
     6    4    5 2
     7    4    6 1
     8    6   11 1
     9    6    7 2
    10    7    8 1
    11    7    9 1
    12    9   10 1
    13    9   12 1
    14   10   11 2
    15   10   26 1
    16   12   13 1
    17   12   20 1
    18   12   14 1
    19   14   15 1
    20   14   16 1
    21   14   24 1
    22   16   17 1
    23   16   18 1
    24   16   23 1
    25   18   19 1
    26   18   20 1
    27   18   21 1
    28   21   22 1
    29   21   27 1
    30   21   28 1
    31   22   29 1
    32   23   30 1
    33   24   31 1
@<TRIPOS>MOLECULE
ZINC14806888
   32    34     0     0     0
SMALL
USER_CHARGES
(2R,3S,4S,5R)-5-(6-aminopurin-9-yl)-2-(hydroxymethyl)-4-sulfanyl-tetrahydrofuran-3-ol
@<TRIPOS>ATOM
      1 C1          2.2812    1.4144   -0.0122 C.ar      1 <0>         0.3435
      2 N1          2.3495    0.0954   -0.0199 N.ar      1 <0>        -0.5756
      3 C2          1.2499   -0.6506   -0.0134 C.ar      1 <0>         0.4447
      4 C3          0.0021   -0.0041    0.0020 C.ar      1 <0>        -0.0600
      5 C4         -0.0170    1.4007    0.0097 C.ar      1 <0>         0.3078
      6 N2          1.1358    2.0624    0.0023 N.ar      1 <0>        -0.5342
      7 N3         -1.3407    1.7609    0.0298 N.pl3     1 <0>        -0.4699
      8 C5         -2.0765    0.6135    0.0259 C.2       1 <0>         0.2962
      9 N4         -1.2868   -0.4209    0.0125 N.2       1 <0>        -0.4585
     10 C6         -1.8669    3.1281    0.0442 C.3       1 <0>         0.3352
     11 H1         -1.2179    3.7685    0.6415 H         1 <0>         0.1252
     12 C7         -1.9569    3.6701   -1.3955 C.3       1 <0>        -0.1000
     13 H2         -1.3386    4.5608   -1.5072 H         1 <0>         0.1285
     14 C8         -3.4535    4.0235   -1.5749 C.3       1 <0>         0.0758
     15 H3         -3.5692    4.9637   -2.1142 H         1 <0>         0.0925
     16 C9         -3.9319    4.1650   -0.1075 C.3       1 <0>         0.0564
     17 H4         -3.6770    5.1490    0.2862 H         1 <0>         0.0997
     18 O1         -3.1979    3.1338    0.5870 O.3       1 <0>        -0.3431
     19 C10        -5.4387    3.9198   -0.0061 C.3       1 <0>         0.0794
     20 O2         -5.8730    4.1697    1.3322 O.3       1 <0>        -0.5636
     21 O3         -4.1507    2.9676   -2.2391 O.3       1 <0>        -0.5275
     22 S1         -1.4546    2.3969   -2.5859 S.3       1 <0>        -0.1482
     23 N5          1.3315   -2.0321   -0.0211 N.pl3     1 <0>        -0.7441
     24 H5          3.1998    1.9824   -0.0183 H         1 <0>         0.2042
     25 H6         -3.1555    0.5692    0.0363 H         1 <0>         0.2217
     26 H7         -5.9625    4.5887   -0.6889 H         1 <0>         0.0659
     27 H8         -5.6572    2.8855   -0.2718 H         1 <0>         0.0682
     28 H9         -6.8204    4.0337    1.4702 H         1 <0>         0.3874
     29 H10        -5.0921    3.1422   -2.3747 H         1 <0>         0.3793
     30 H11        -1.5810    3.0008   -3.7810 H         1 <0>         0.0720
     31 H12         0.8886   -2.3967    0.7980 H         1 <0>         0.3687
     32 H13         2.1986   -2.4666   -0.0318 H         1 <0>         0.3723
@<TRIPOS>BOND
     1    1    6 ar
     2    1    2 ar
     3    1   24 1
     4    2    3 ar
     5    3    4 ar
     6    3   23 1
     7    4    9 1
     8    4    5 ar
     9    5    6 ar
    10    5    7 1
    11    7    8 1
    12    7   10 1
    13    8    9 2
    14    8   25 1
    15   10   11 1
    16   10   18 1
    17   10   12 1
    18   12   13 1
    19   12   14 1
    20   12   22 1
    21   14   15 1
    22   14   16 1
    23   14   21 1
    24   16   17 1
    25   16   18 1
    26   16   19 1
    27   19   20 1
    28   19   26 1
    29   19   27 1
    30   20   28 1
    31   21   29 1
    32   22   30 1
    33   23   31 1
    34   23   32 1
@<TRIPOS>MOLECULE
ZINC17258471
   31    33     0     0     0
SMALL
USER_CHARGES
9-[(2R,3S,4S,5S)-3,4-dihydroxy-5-(hydroxymethyl)tetrahydrothiophen-2-yl]-3H-purin-6-one
@<TRIPOS>ATOM
      1 C1         -3.8387    2.2028   -0.5711 C.2       1 <0>         0.3822
      2 N1         -3.3812    0.9469   -0.4208 N.2       1 <0>        -0.5221
      3 C2         -2.0557    0.7099   -0.1803 C.2       1 <0>         0.2756
      4 C3         -1.1863    1.7938   -0.0930 C.2       1 <0>        -0.1125
      5 C4         -1.7457    3.1361   -0.2647 C.2       1 <0>         0.5706
      6 O1         -1.0326    4.1247   -0.1988 O.2       1 <0>        -0.5071
      7 N2         -3.0672    3.2520   -0.4985 N.am      1 <0>        -0.6306
      8 N3          0.0513    1.3012    0.1412 N.2       1 <0>        -0.4252
      9 C5         -0.0118    0.0020    0.2094 C.2       1 <0>         0.2123
     10 N4         -1.2986   -0.4044    0.0123 N.pl3     1 <0>        -0.4380
     11 C6         -1.7785   -1.7885    0.0090 C.3       1 <0>         0.1828
     12 H1         -2.7920   -1.5967    0.3911 H         1 <0>         0.1597
     13 C7         -1.8159   -2.3600   -1.4261 C.3       1 <0>         0.1021
     14 H2         -2.6902   -3.0190   -1.5329 H         1 <0>         0.0975
     15 C8         -0.5780   -3.1601   -1.8029 C.3       1 <0>         0.0926
     16 H3         -0.1277   -2.6893   -2.6892 H         1 <0>         0.0738
     17 C9          0.4775   -3.2465   -0.6777 C.3       1 <0>        -0.1004
     18 H4          1.3667   -2.6535   -0.9377 H         1 <0>         0.1234
     19 S1         -0.5584   -2.9158    0.8140 S.3       1 <0>        -0.1419
     20 C10         1.1018   -4.6420   -0.6153 C.3       1 <0>         0.0913
     21 O2          1.7700   -4.9203   -1.8474 O.3       1 <0>        -0.6024
     22 O3         -0.9808   -4.4856   -2.1531 O.3       1 <0>        -0.5848
     23 O4         -1.9550   -1.2750   -2.3456 O.3       1 <0>        -0.5729
     24 H5         -4.8920    2.3490   -0.7598 H         1 <0>         0.2126
     25 H6          0.8274   -0.6534    0.3900 H         1 <0>         0.2166
     26 H7          1.8257   -4.6832    0.2119 H         1 <0>         0.0592
     27 H8          0.3124   -5.3898   -0.4492 H         1 <0>         0.0672
     28 H9          2.2820   -5.8834   -1.9901 H         1 <0>         0.4264
     29 H10        -0.2275   -5.2268   -2.4582 H         1 <0>         0.4170
     30 H11        -2.0016   -1.4728   -3.4267 H         1 <0>         0.4182
     31 H12        -3.4929    4.2578   -0.6292 H         1 <0>         0.4568
@<TRIPOS>BOND
     1    1    7 1
     2    1    2 2
     3    1   24 1
     4    2    3 1
     5    3   10 1
     6    3    4 2
     7    4    5 1
     8    4    8 1
     9    5    6 2
    10    5    7 am
    11    7   31 1
    12    8    9 2
    13    9   10 1
    14    9   25 1
    15   10   11 1
    16   11   12 1
    17   11   19 1
    18   11   13 1
    19   13   14 1
    20   13   15 1
    21   13   23 1
    22   15   16 1
    23   15   17 1
    24   15   22 1
    25   17   18 1
    26   17   19 1
    27   17   20 1
    28   20   21 1
    29   20   26 1
    30   20   27 1
    31   21   28 1
    32   22   29 1
    33   23   30 1
@<TRIPOS>MOLECULE
ZINC40329364
   32    33     0     0     0
SMALL
USER_CHARGES

@<TRIPOS>ATOM
      1 C1         -0.0225    1.8097    0.0120 C.3       1 <0>        -0.6492
      2 S1          0.0021   -0.0041    0.0020 S.o2      1 <0>         2.5285
      3 O1          0.8352   -0.4880    1.0465 O.2       1 <0>        -0.9730
      4 O2         -1.3147   -0.5105   -0.1678 O.2       1 <0>        -0.9401
      5 C2          0.8454   -0.4373   -1.4831 C.ar      1 <0>        -0.7109
      6 C3          2.0600   -1.0923   -1.4227 C.ar      1 <0>         0.0135
      7 C4          2.7227   -1.4322   -2.5876 C.ar      1 <0>        -0.2242
      8 C5          2.1721   -1.1183   -3.8169 C.ar      1 <0>        -0.0196
      9 C6          0.9580   -0.4640   -3.8846 C.ar      1 <0>        -0.2678
     10 C7          0.2869   -0.1257   -2.7160 C.ar      1 <0>         0.3567
     11 N1         -0.9438    0.5315   -2.7809 N.2       1 <0>        -1.0985
     12 S2         -1.6080    0.9022   -4.2519 S.o2      1 <0>         2.6286
     13 O3         -0.7519    1.8638   -4.8533 O.2       1 <0>        -1.0056
     14 O4         -1.9240   -0.3337   -4.8779 O.2       1 <0>        -1.0052
     15 C8         -3.1398    1.7158   -3.9417 C.2       1 <0>        -0.7979
     16 C9         -3.4461    3.0426   -4.2569 C.2       1 <0>         0.3143
     17 N2         -4.6744    3.2830   -3.8756 N.pl3     1 <0>        -0.3897
     18 H1         -6.0869    2.0096   -2.9351 H         1 <0>         0.4665
     19 N3         -5.1956    2.1160   -3.3027 N.pl3     1 <0>        -0.4710
     20 C10        -4.2382    1.1622   -3.3575 C.2       1 <0>         0.5694
     21 N4         -4.3537   -0.1465   -2.8974 N.pl3     1 <0>        -0.7721
     22 H2          1.0001    2.1870    0.0043 H         1 <0>         0.1199
     23 H3         -0.5497    2.1708   -0.8711 H         1 <0>         0.1392
     24 H4         -0.5327    2.1613    0.9088 H         1 <0>         0.1119
     25 H5          2.4927   -1.3389   -0.4643 H         1 <0>         0.1324
     26 H6          3.6726   -1.9437   -2.5374 H         1 <0>         0.1173
     27 H7          2.6925   -1.3849   -4.7249 H         1 <0>         0.1149
     28 H8          0.5288   -0.2188   -4.8448 H         1 <0>         0.1061
     29 H9         -2.7822    3.7488   -4.7335 H         1 <0>         0.2490
     30 H10        -3.6051   -0.7577   -2.9805 H         1 <0>         0.4565
     31 H11        -5.1829   -0.4473   -2.4937 H         1 <0>         0.4246
     32 H12        -5.1441    4.1261   -3.9730 H         1 <0>         0.4756
@<TRIPOS>BOND
     1    1    2 1
     2    1   22 1
     3    1   23 1
     4    1   24 1
     5    2    3 2
     6    2    4 2
     7    2    5 1
     8    5   10 ar
     9    5    6 ar
    10    6    7 ar
    11    6   25 1
    12    7    8 ar
    13    7   26 1
    14    8    9 ar
    15    8   27 1
    16    9   10 ar
    17    9   28 1
    18   10   11 1
    19   11   12 1
    20   12   13 2
    21   12   14 2
    22   12   15 1
    23   15   16 1
    24   15   20 2
    25   16   29 1
    26   16   17 2
    27   17   19 1
    28   17   32 1
    29   18   19 1
    30   19   20 1
    31   20   21 1
    32   21   30 1
    33   21   31 1
@<TRIPOS>MOLECULE
ZINC51147718
   40    41     0     0     0
SMALL
USER_CHARGES

@<TRIPOS>ATOM
      1 C1         -0.6483    0.8169    0.4633 C.3       1 <0>        -0.1537
      2 C2         -0.4663   -0.6876    0.2528 C.3       1 <0>        -0.1171
      3 C3          0.2708   -0.9327   -1.0653 C.3       1 <0>         0.1187
      4 C4          0.5599   -2.4094   -1.2481 C.2       1 <0>         0.5308
      5 O1         -0.2485   -3.3091   -1.3311 O.2       1 <0>        -0.4541
      6 N1          1.9025   -2.5142   -1.2999 N.am      1 <0>        -0.5710
      7 C5          2.4957   -1.3213   -1.1765 C.2       1 <0>         0.7080
      8 O2          3.7003   -1.1608   -1.1934 O.2       1 <0>        -0.5564
      9 N2          1.6097   -0.3193   -1.0323 N.am      1 <0>        -0.7184
     10 C6          2.6235   -3.7781   -1.4694 C.3       1 <0>         0.2073
     11 C7          2.8292   -4.0460   -2.9381 C.2       1 <0>        -0.3270
     12 C8          1.9560   -4.7428   -3.7782 C.2       1 <0>         0.1155
     13 N3          2.4741   -4.7690   -4.9793 N.2       1 <0>        -0.3022
     14 N4          3.6981   -4.0887   -4.9475 N.pl3     1 <0>        -0.3797
     15 C9          3.8960   -3.6473   -3.6845 C.2       1 <0>         0.3936
     16 N5          4.9925   -2.9202   -3.2296 N.pl3     1 <0>        -0.5900
     17 N6          6.2349   -3.1661   -3.7413 N.3       1 <0>        -0.6087
     18 C10         4.6015   -3.8863   -6.0829 C.3       1 <0>         0.1028
     19 C11         0.6426   -5.3589   -3.3701 C.3       1 <0>        -0.0716
     20 C12        -0.5411   -0.3900   -2.2431 C.3       1 <0>        -0.1486
     21 H1          0.3284    1.2997    0.4979 H         1 <0>         0.0559
     22 H2         -1.2294    1.2313   -0.3605 H         1 <0>         0.0642
     23 H3         -1.1734    0.9915    1.4023 H         1 <0>         0.0666
     24 H4          0.1149   -1.1020    1.0766 H         1 <0>         0.0735
     25 H5         -1.4429   -1.1704    0.2182 H         1 <0>         0.0913
     26 H6          1.8129    0.6234   -0.9273 H         1 <0>         0.4381
     27 H7          3.5916   -3.7137   -0.9728 H         1 <0>         0.0926
     28 H8          2.0430   -4.5893   -1.0299 H         1 <0>         0.1035
     29 H9          4.8743   -2.2390   -2.5493 H         1 <0>         0.4264
     30 H10         6.9111   -2.5102   -3.3798 H         1 <0>         0.3633
     31 H11         6.5197   -4.1167   -3.5584 H         1 <0>         0.3314
     32 H12         4.4035   -2.9150   -6.5361 H         1 <0>         0.0672
     33 H13         5.6343   -3.9217   -5.7362 H         1 <0>         0.1024
     34 H14         4.4389   -4.6716   -6.8211 H         1 <0>         0.0825
     35 H15        -0.1566   -4.6290   -3.4987 H         1 <0>         0.0789
     36 H16         0.4417   -6.2312   -3.9922 H         1 <0>         0.0720
     37 H17         0.6929   -5.6622   -2.3244 H         1 <0>         0.0782
     38 H18        -0.6927    0.6820   -2.1167 H         1 <0>         0.0817
     39 H19        -0.0009   -0.5735   -3.1720 H         1 <0>         0.0662
     40 H20        -1.5080   -0.8918   -2.2799 H         1 <0>         0.0858
@<TRIPOS>BOND
     1    1    2 1
     2    1   21 1
     3    1   22 1
     4    1   23 1
     5    2    3 1
     6    2   24 1
     7    2   25 1
     8    3    9 1
     9    3    4 1
    10    3   20 1
    11    4    5 2
    12    4    6 am
    13    6    7 am
    14    6   10 1
    15    7    8 2
    16    7    9 am
    17    9   26 1
    18   10   11 1
    19   10   27 1
    20   10   28 1
    21   11   15 2
    22   11   12 1
    23   12   13 2
    24   12   19 1
    25   13   14 1
    26   14   15 1
    27   14   18 1
    28   15   16 1
    29   16   17 1
    30   16   29 1
    31   17   30 1
    32   17   31 1
    33   18   32 1
    34   18   33 1
    35   18   34 1
    36   19   35 1
    37   19   36 1
    38   19   37 1
    39   20   38 1
    40   20   39 1
    41   20   40 1
@<TRIPOS>MOLECULE
ZINC01897529
   30    31     0     0     0
SMALL
USER_CHARGES
8-(2-hydroxyethylamino)-3,7-dimethyl-purine-2,6-dione
@<TRIPOS>ATOM
      1 C1         -1.9574    2.4273    3.8277 C.3       1 <0>         0.0765
      2 N1         -0.7602    1.6036    3.6417 N.pl3     1 <0>        -0.4490
      3 C2          0.0340    1.0586    4.6417 C.2       1 <0>        -0.1795
      4 C3          0.0018    1.0830    6.0471 C.2       1 <0>         0.5984
      5 O1         -0.8791    1.6886    6.6324 O.2       1 <0>        -0.5251
      6 N2          0.9559    0.4285    6.7410 N.am      1 <0>        -0.6557
      7 H1          0.9357    0.4438    7.7407 H         1 <0>         0.4455
      8 C4          1.9332   -0.2439    6.1088 C.2       1 <0>         0.7123
      9 O2          2.7766   -0.8223    6.7668 O.2       1 <0>        -0.5384
     10 N3          2.0009   -0.2931    4.7650 N.am      1 <0>        -0.5093
     11 C5          1.0496    0.3599    3.9978 C.2       1 <0>         0.3566
     12 N4          0.8547    0.4862    2.6842 N.2       1 <0>        -0.5374
     13 C6         -0.2120    1.2256    2.4567 C.2       1 <0>         0.5578
     14 N5         -0.6984    1.5583    1.2133 N.pl3     1 <0>        -0.6940
     15 C7         -0.0127    1.0858    0.0080 C.3       1 <0>         0.1421
     16 C8         -0.7527    1.5927   -1.2315 C.3       1 <0>         0.0608
     17 O3         -0.6718    3.0184   -1.2848 O.3       1 <0>        -0.5728
     18 C9          3.0820   -1.0368    4.1135 C.3       1 <0>         0.0858
     19 H2         -2.8367    1.7848    3.8749 H         1 <0>         0.0814
     20 H3         -1.8695    2.9916    4.7561 H         1 <0>         0.1024
     21 H4         -2.0568    3.1182    2.9906 H         1 <0>         0.0855
     22 H5         -1.4954    2.1056    1.1349 H         1 <0>         0.4157
     23 H6          0.0021   -0.0041    0.0020 H         1 <0>         0.0875
     24 H7          1.0099    1.4631    0.0003 H         1 <0>         0.0803
     25 H8         -0.2958    1.1691   -2.1259 H         1 <0>         0.0710
     26 H9         -1.7985    1.2898   -1.1795 H         1 <0>         0.0554
     27 H10        -1.1204    3.4096   -2.0469 H         1 <0>         0.3858
     28 H11         3.7277   -1.4787    4.8723 H         1 <0>         0.1027
     29 H12         2.6574   -1.8261    3.4931 H         1 <0>         0.0789
     30 H13         3.6651   -0.3588    3.4902 H         1 <0>         0.0790
@<TRIPOS>BOND
     1    1    2 1
     2    1   19 1
     3    1   20 1
     4    1   21 1
     5    2   13 1
     6    2    3 1
     7    3   11 2
     8    3    4 1
     9    4    5 2
    10    4    6 am
    11    6    7 1
    12    6    8 am
    13    8    9 2
    14    8   10 am
    15   10   11 1
    16   10   18 1
    17   11   12 1
    18   12   13 2
    19   13   14 1
    20   14   15 1
    21   14   22 1
    22   15   16 1
    23   15   23 1
    24   15   24 1
    25   16   17 1
    26   16   25 1
    27   16   26 1
    28   17   27 1
    29   18   28 1
    30   18   29 1
    31   18   30 1
@<TRIPOS>MOLECULE
ZINC35607110
   34    34     0     0     0
SMALL
USER_CHARGES

@<TRIPOS>ATOM
      1 C1         -0.0184    1.5028    0.0103 C.3       1 <0>        -0.1336
      2 C2          0.0021   -0.0041    0.0020 C.2       1 <0>         0.2283
      3 C3         -1.1616   -0.7084    0.0037 C.2       1 <0>        -0.2432
      4 C4         -1.1104   -2.1055   -0.0041 C.2       1 <0>         0.2940
      5 N1          0.0558   -2.7185   -0.0129 N.2       1 <0>        -0.5498
      6 C5          1.1948   -2.0218   -0.0145 C.2       1 <0>         0.6339
      7 O1          2.2612   -2.6135   -0.0227 O.2       1 <0>        -0.5319
      8 N2          1.1831   -0.6757   -0.0129 N.am      1 <0>        -0.6226
      9 H1          2.0193   -0.1843   -0.0186 H         1 <0>         0.4195
     10 C6         -2.3859   -2.9082   -0.0019 C.3       1 <0>        -0.1225
     11 C7         -2.4878    0.0074    0.0143 C.3       1 <0>        -0.0822
     12 C8         -2.9956    0.1452   -1.3978 C.2       1 <0>         0.5107
     13 O2         -2.3447   -0.2946   -2.3219 O.2       1 <0>        -0.5277
     14 N3         -4.1730    0.7571   -1.6339 N.am      1 <0>        -0.7312
     15 C9         -4.6667    0.8909   -3.0067 C.3       1 <0>         0.1211
     16 C10        -6.0130    1.6177   -2.9959 C.3       1 <0>        -0.1336
     17 C11        -6.5286    1.7575   -4.4296 C.3       1 <0>         0.0780
     18 O3         -7.7861    2.4362   -4.4195 O.3       1 <0>        -0.5751
     19 H2          1.0042    1.8801    0.0026 H         1 <0>         0.0836
     20 H3         -0.5455    1.8639   -0.8728 H         1 <0>         0.0997
     21 H4         -0.5286    1.8543    0.9071 H         1 <0>         0.1033
     22 H5         -2.6986   -3.0962   -1.0290 H         1 <0>         0.0971
     23 H6         -2.2167   -3.8577    0.5060 H         1 <0>         0.0914
     24 H7         -3.1648   -2.3513    0.5189 H         1 <0>         0.0851
     25 H8         -3.2045   -0.5642    0.6040 H         1 <0>         0.1135
     26 H9         -2.3630    0.9971    0.4537 H         1 <0>         0.1080
     27 H10        -4.6936    1.1088   -0.8948 H         1 <0>         0.4034
     28 H11        -3.9500    1.4625   -3.5964 H         1 <0>         0.0703
     29 H12        -4.7915   -0.0987   -3.4461 H         1 <0>         0.0715
     30 H13        -6.7297    1.0461   -2.4062 H         1 <0>         0.0785
     31 H14        -5.8882    2.6073   -2.5565 H         1 <0>         0.0777
     32 H15        -5.8119    2.3291   -5.0193 H         1 <0>         0.0497
     33 H16        -6.6534    0.7678   -4.8690 H         1 <0>         0.0503
     34 H17        -8.1731    2.5603   -5.2970 H         1 <0>         0.3850
@<TRIPOS>BOND
     1    1    2 1
     2    1   19 1
     3    1   20 1
     4    1   21 1
     5    2    8 1
     6    2    3 2
     7    3    4 1
     8    3   11 1
     9    4    5 2
    10    4   10 1
    11    5    6 1
    12    6    7 2
    13    6    8 am
    14    8    9 1
    15   10   22 1
    16   10   23 1
    17   10   24 1
    18   11   12 1
    19   11   25 1
    20   11   26 1
    21   12   13 2
    22   12   14 am
    23   14   15 1
    24   14   27 1
    25   15   16 1
    26   15   28 1
    27   15   29 1
    28   16   17 1
    29   16   30 1
    30   16   31 1
    31   17   18 1
    32   17   32 1
    33   17   33 1
    34   18   34 1
@<TRIPOS>MOLECULE
ZINC44608165
   32    33     0     0     0
SMALL
USER_CHARGES

@<TRIPOS>ATOM
      1 C1         -0.0178    1.4608    0.0101 C.3       1 <0>         0.0782
      2 N1          0.0021   -0.0041    0.0020 N.am      1 <0>        -0.5553
      3 C2          0.0056   -0.6691   -1.1709 C.2       1 <0>         0.5463
      4 O1         -0.0076   -0.0578   -2.2241 O.2       1 <0>        -0.5090
      5 C3          0.0254   -2.0847   -1.1668 C.2       1 <0>        -0.2876
      6 C4          0.0402   -2.7381    0.0147 C.2       1 <0>         0.1750
      7 N2          0.0360   -2.0258    1.1831 N.am      1 <0>        -0.5247
      8 C5          0.0223   -0.6806    1.1655 C.2       1 <0>         0.7024
      9 O2          0.0235   -0.0674    2.2154 O.2       1 <0>        -0.5286
     10 C6          0.0516   -2.7346    2.4651 C.3       1 <0>         0.3047
     11 H1          0.1473   -2.0265    3.2882 H         1 <0>         0.1395
     12 C7         -1.2318   -3.5788    2.6285 C.3       1 <0>         0.0733
     13 H2         -1.6566   -3.8204    1.6542 H         1 <0>         0.0952
     14 C8         -0.7491   -4.8616    3.3418 C.3       1 <0>         0.0471
     15 H3         -1.2391   -4.9678    4.3096 H         1 <0>         0.0971
     16 C9          0.7688   -4.6406    3.5250 C.3       1 <0>         0.0515
     17 H4          0.9756   -4.2262    4.5117 H         1 <0>         0.0985
     18 O3          1.1324   -3.6920    2.4972 O.3       1 <0>        -0.3495
     19 C10         1.5257   -5.9562    3.3317 C.3       1 <0>         0.0794
     20 O4          2.9110   -5.7553    3.6190 O.3       1 <0>        -0.5633
     21 O5         -0.9961   -6.0101    2.5282 O.3       1 <0>        -0.5502
     22 O6         -2.1883   -2.8854    3.4323 O.3       1 <0>        -0.5402
     23 H5          1.0048    1.8381    0.0023 H         1 <0>         0.0757
     24 H6         -0.5450    1.8219   -0.8730 H         1 <0>         0.0955
     25 H7         -0.5280    1.8123    0.9069 H         1 <0>         0.0932
     26 H8          0.0282   -2.6347   -2.0963 H         1 <0>         0.1756
     27 H9          0.0550   -3.8177    0.0376 H         1 <0>         0.1793
     28 H10         1.1206   -6.7109    4.0058 H         1 <0>         0.0652
     29 H11         1.4134   -6.2919    2.3008 H         1 <0>         0.0680
     30 H12         3.4531   -6.5496    3.5169 H         1 <0>         0.3869
     31 H13        -0.7122   -6.8436    2.9279 H         1 <0>         0.3874
     32 H14        -3.0140   -3.3703    3.5675 H         1 <0>         0.3936
@<TRIPOS>BOND
     1    1    2 1
     2    1   23 1
     3    1   24 1
     4    1   25 1
     5    2    8 am
     6    2    3 am
     7    3    4 2
     8    3    5 1
     9    5    6 2
    10    5   26 1
    11    6    7 1
    12    6   27 1
    13    7    8 am
    14    7   10 1
    15    8    9 2
    16   10   11 1
    17   10   18 1
    18   10   12 1
    19   12   13 1
    20   12   14 1
    21   12   22 1
    22   14   15 1
    23   14   16 1
    24   14   21 1
    25   16   17 1
    26   16   18 1
    27   16   19 1
    28   19   20 1
    29   19   28 1
    30   19   29 1
    31   20   30 1
    32   21   31 1
    33   22   32 1
@<TRIPOS>MOLECULE
ZINC51143966
   32    33     0     0     0
SMALL
USER_CHARGES

@<TRIPOS>ATOM
      1 C1          1.0224   -0.3374    0.9339 C.ar      1 <0>        -0.0051
      2 C2          2.1771    0.3976    0.9150 C.ar      1 <0>        -0.2387
      3 C3          2.3062    1.4448    0.0046 C.ar      1 <0>         0.4294
      4 N1          1.3273    1.7372   -0.8411 N.ar      1 <0>        -0.5263
      5 C4          0.2010    1.0558   -0.8560 C.ar      1 <0>         0.2116
      6 C5          0.0033   -0.0062    0.0283 C.ar      1 <0>        -0.2576
      7 C6         -1.2592   -0.7696    0.0104 C.2       1 <0>         0.5806
      8 O1         -2.3232   -0.1871    0.0943 O.2       1 <0>        -0.5177
      9 N2         -1.2330   -2.1127   -0.0988 N.am      1 <0>        -0.6247
     10 C7          0.0520   -2.8137   -0.1087 C.3       1 <0>         0.1066
     11 C8          0.1602   -3.7007    1.1360 C.3       1 <0>        -0.6311
     12 S1         -1.2359   -4.8640    1.1505 S.o2      1 <0>         2.4187
     13 O2         -1.2738   -5.5081    2.4165 O.2       1 <0>        -0.9346
     14 O3         -1.1763   -5.6556   -0.0281 O.2       1 <0>        -0.9288
     15 C9         -2.6640   -3.7469    1.0277 C.3       1 <0>        -0.6216
     16 C10        -2.4901   -2.8558   -0.2002 C.3       1 <0>         0.1184
     17 N3          3.4726    2.1906   -0.0170 N.pl3     1 <0>        -0.5620
     18 N4          3.6093    3.2191   -0.9055 N.3       1 <0>        -0.5982
     19 H1          0.9005   -1.1565    1.6272 H         1 <0>         0.1396
     20 H2          2.9805    0.1683    1.5995 H         1 <0>         0.1393
     21 H3         -0.5761    1.3206   -1.5577 H         1 <0>         0.1655
     22 H4          0.1211   -3.4328   -1.0032 H         1 <0>         0.1012
     23 H5          0.8631   -2.0855   -0.1075 H         1 <0>         0.1172
     24 H6          1.0979   -4.2558    1.1085 H         1 <0>         0.1523
     25 H7          0.1274   -3.0796    2.0311 H         1 <0>         0.1374
     26 H8         -3.5782   -4.3323    0.9293 H         1 <0>         0.1508
     27 H9         -2.7201   -3.1262    1.9219 H         1 <0>         0.1384
     28 H10        -3.3228   -2.1548   -0.2581 H         1 <0>         0.1208
     29 H11        -2.4743   -3.4758   -1.0965 H         1 <0>         0.0986
     30 H12         4.1927    1.9827    0.5988 H         1 <0>         0.4142
     31 H13         4.5073    3.6678   -0.8039 H         1 <0>         0.3579
     32 H14         3.4695    2.8999   -1.8524 H         1 <0>         0.3478
@<TRIPOS>BOND
     1    1    6 ar
     2    1    2 ar
     3    1   19 1
     4    2    3 ar
     5    2   20 1
     6    3    4 ar
     7    3   17 1
     8    4    5 ar
     9    5    6 ar
    10    5   21 1
    11    6    7 1
    12    7    8 2
    13    7    9 am
    14    9   16 1
    15    9   10 1
    16   10   11 1
    17   10   22 1
    18   10   23 1
    19   11   12 1
    20   11   24 1
    21   11   25 1
    22   12   13 2
    23   12   14 2
    24   12   15 1
    25   15   16 1
    26   15   26 1
    27   15   27 1
    28   16   28 1
    29   16   29 1
    30   17   18 1
    31   17   30 1
    32   18   31 1
    33   18   32 1
@<TRIPOS>MOLECULE
ZINC62510851
   33    33     0     0     0
SMALL
USER_CHARGES

@<TRIPOS>ATOM
      1 C1          1.3248   -1.9589    3.3063 C.3       1 <0>         0.0860
      2 N1          0.7516   -1.2465    2.1617 N.pl3     1 <0>        -1.1320
      3 S1          1.3825    0.2111    1.6932 S.o2      1 <0>         2.7917
      4 O1          0.6398    0.6284    0.5559 O.2       1 <0>        -0.9726
      5 O2          1.4876    1.0044    2.8674 O.2       1 <0>        -0.9787
      6 N2          2.9289   -0.0696    1.1716 N.pl3     1 <0>        -1.1242
      7 C2          3.1627   -0.8896   -0.0197 C.3       1 <0>         0.1279
      8 C3          4.6000   -0.6877   -0.5038 C.3       1 <0>        -0.0632
      9 C4          4.8219   -1.4810   -1.7952 C.3       1 <0>        -0.1410
     10 C5          4.6474   -2.9739   -1.5042 C.3       1 <0>         0.0548
     11 O3          5.5630   -3.3685   -0.4804 O.3       1 <0>        -0.3796
     12 C6          5.3722   -2.6937    0.7647 C.3       1 <0>         0.0597
     13 C7          5.5759   -1.1896    0.5649 C.3       1 <0>        -0.1484
     14 C8          4.8479    0.7993   -0.7654 C.3       1 <0>         0.0868
     15 O4          3.8937    1.2816   -1.7135 O.3       1 <0>        -0.5654
     16 H1          2.3745   -2.1773    3.1097 H         1 <0>         0.0581
     17 H2          1.2438   -1.3380    4.1984 H         1 <0>         0.0672
     18 H3          0.7827   -2.8916    3.4623 H         1 <0>         0.0823
     19 H4          0.0024   -1.6286    1.6783 H         1 <0>         0.4180
     20 H5          3.6800    0.3088    1.6549 H         1 <0>         0.4139
     21 H6          3.0061   -1.9400    0.2257 H         1 <0>         0.0648
     22 H7          2.4692   -0.5930   -0.8067 H         1 <0>         0.0917
     23 H8          4.0944   -1.1685   -2.5443 H         1 <0>         0.0872
     24 H9          5.8302   -1.2977   -2.1666 H         1 <0>         0.0774
     25 H10         3.6267   -3.1625   -1.1714 H         1 <0>         0.0526
     26 H11         4.8462   -3.5465   -2.4101 H         1 <0>         0.0980
     27 H12         4.3610   -2.8786    1.1272 H         1 <0>         0.0534
     28 H13         6.0932   -3.0645    1.4933 H         1 <0>         0.0972
     29 H14         6.5994   -1.0005    0.2412 H         1 <0>         0.0803
     30 H15         5.3876   -0.6687    1.5036 H         1 <0>         0.0765
     31 H16         4.7459    1.3542    0.1672 H         1 <0>         0.0473
     32 H17         5.8543    0.9357   -1.1612 H         1 <0>         0.0497
     33 H18         3.9914    2.2196   -1.9274 H         1 <0>         0.3826
@<TRIPOS>BOND
     1    1    2 1
     2    1   16 1
     3    1   17 1
     4    1   18 1
     5    2    3 1
     6    2   19 1
     7    3    4 2
     8    3    5 2
     9    3    6 1
    10    6    7 1
    11    6   20 1
    12    7    8 1
    13    7   21 1
    14    7   22 1
    15    8   13 1
    16    8    9 1
    17    8   14 1
    18    9   10 1
    19    9   23 1
    20    9   24 1
    21   10   11 1
    22   10   25 1
    23   10   26 1
    24   11   12 1
    25   12   13 1
    26   12   27 1
    27   12   28 1
    28   13   29 1
    29   13   30 1
    30   14   15 1
    31   14   31 1
    32   14   32 1
    33   15   33 1
@<TRIPOS>MOLECULE
ZINC05480506
   48    50     0     0     0
SMALL
USER_CHARGES
N,N'-bis(2-hydroxyethyl)adamantane-1,3-dicarboxamide
@<TRIPOS>ATOM
      1 C1          0.3415   -4.7307   -0.0266 C.3       1 <0>        -0.1109
      2 C2         -0.3746   -4.2373    1.2322 C.3       1 <0>        -0.0813
      3 H1          0.1525   -4.5984    2.1153 H         1 <0>         0.0813
      4 C3         -1.8100   -4.7669    1.2431 C.3       1 <0>        -0.1017
      5 C4         -2.5500   -4.2600    0.0035 C.3       1 <0>        -0.0693
      6 C5         -1.8339   -4.7534   -1.2553 C.3       1 <0>        -0.1019
      7 C6         -0.3985   -4.2239   -1.2661 C.3       1 <0>        -0.0813
      8 H2          0.1117   -4.5754   -2.1629 H         1 <0>         0.0813
      9 C7         -0.4192   -2.6940   -1.2577 C.3       1 <0>        -0.1017
     10 C8         -1.1354   -2.2006    0.0011 C.3       1 <0>        -0.0693
     11 C9         -0.3954   -2.7074    1.2406 C.3       1 <0>        -0.1019
     12 C10        -2.5708   -2.7302    0.0119 C.3       1 <0>        -0.0657
     13 C11        -1.1558   -0.6938    0.0094 C.2       1 <0>         0.5223
     14 O1         -2.2142   -0.1017    0.0227 O.2       1 <0>        -0.5330
     15 N1          0.0021   -0.0041    0.0020 N.am      1 <0>        -0.7243
     16 C12        -0.0178    1.4608    0.0101 C.3       1 <0>         0.1178
     17 C13         1.4176    1.9904   -0.0008 C.3       1 <0>         0.0632
     18 O2          2.0499    1.6276   -1.2299 O.3       1 <0>        -0.5716
     19 C14        -3.9638   -4.7816    0.0142 C.2       1 <0>         0.5223
     20 O3         -4.8962   -4.0062    0.0273 O.2       1 <0>        -0.5329
     21 N2         -4.1921   -6.1099    0.0093 N.am      1 <0>        -0.7243
     22 C15        -5.5665   -6.6170    0.0197 C.3       1 <0>         0.1178
     23 C16        -5.5458   -8.1468    0.0113 C.3       1 <0>         0.0632
     24 O4         -4.9583   -8.6219    1.2242 O.3       1 <0>        -0.5716
     25 H3          0.3563   -5.8206   -0.0326 H         1 <0>         0.0678
     26 H4          1.3641   -4.3534   -0.0343 H         1 <0>         0.0678
     27 H5         -1.7952   -5.8567    1.2371 H         1 <0>         0.0705
     28 H6         -2.3202   -4.4153    2.1399 H         1 <0>         0.0703
     29 H7         -2.3611   -4.3924   -2.1383 H         1 <0>         0.0704
     30 H8         -1.8191   -5.8433   -1.2613 H         1 <0>         0.0688
     31 H9         -0.9464   -2.3329   -2.1408 H         1 <0>         0.0703
     32 H10         0.6033   -2.3167   -1.2655 H         1 <0>         0.0704
     33 H11         0.6272   -2.3302    1.2329 H         1 <0>         0.0688
     34 H12        -0.9056   -2.3559    2.1374 H         1 <0>         0.0704
     35 H13        -3.0810   -2.3787    0.9087 H         1 <0>         0.0773
     36 H14        -3.0980   -2.3691   -0.8711 H         1 <0>         0.0773
     37 H15         0.8486   -0.4776   -0.0086 H         1 <0>         0.4021
     38 H16        -0.5450    1.8219   -0.8730 H         1 <0>         0.0755
     39 H17        -0.5280    1.8123    0.9069 H         1 <0>         0.0825
     40 H18         1.4050    3.0761    0.0947 H         1 <0>         0.0646
     41 H19         1.9705    1.5586    0.8335 H         1 <0>         0.0535
     42 H20         2.9647    1.9314   -1.3062 H         1 <0>         0.3835
     43 H21        -3.4464   -6.7302   -0.0012 H         1 <0>         0.4021
     44 H22        -6.0767   -6.2655    0.9165 H         1 <0>         0.0755
     45 H23        -6.0937   -6.2559   -0.8634 H         1 <0>         0.0825
     46 H24        -6.5653   -8.5236   -0.0706 H         1 <0>         0.0646
     47 H25        -4.9595   -8.4976   -0.8381 H         1 <0>         0.0535
     48 H26        -4.9123   -9.5857    1.2878 H         1 <0>         0.3835
@<TRIPOS>BOND
     1    1    7 1
     2    1    2 1
     3    1   25 1
     4    1   26 1
     5    2    3 1
     6    2   11 1
     7    2    4 1
     8    4    5 1
     9    4   27 1
    10    4   28 1
    11    5   12 1
    12    5    6 1
    13    5   19 1
    14    6    7 1
    15    6   29 1
    16    6   30 1
    17    7    8 1
    18    7    9 1
    19    9   10 1
    20    9   31 1
    21    9   32 1
    22   10   11 1
    23   10   12 1
    24   10   13 1
    25   11   33 1
    26   11   34 1
    27   12   35 1
    28   12   36 1
    29   13   14 2
    30   13   15 am
    31   15   16 1
    32   15   37 1
    33   16   17 1
    34   16   38 1
    35   16   39 1
    36   17   18 1
    37   17   40 1
    38   17   41 1
    39   18   42 1
    40   19   20 2
    41   19   21 am
    42   21   22 1
    43   21   43 1
    44   22   23 1
    45   22   44 1
    46   22   45 1
    47   23   24 1
    48   23   46 1
    49   23   47 1
    50   24   48 1
@<TRIPOS>MOLECULE
ZINC35453597
   33    35     0     0     0
SMALL
USER_CHARGES

@<TRIPOS>ATOM
      1 C1          2.5773    6.9780   -3.7699 C.3       1 <0>        -0.1082
      2 C2          1.3213    6.2784   -4.2215 C.2       1 <0>         0.1914
      3 C3          0.2008    7.0053   -4.5046 C.2       1 <0>        -0.2987
      4 C4         -0.9591    6.3310   -4.9247 C.2       1 <0>         0.5286
      5 O1         -1.9776    6.9498   -5.1862 O.2       1 <0>        -0.5356
      6 N1         -0.9243    4.9857   -5.0336 N.am      1 <0>        -0.6162
      7 C5          0.2228    4.3128   -4.7374 C.2       1 <0>         0.3409
      8 N2          1.3082    4.9542   -4.3488 N.2       1 <0>        -0.5252
      9 H1         -1.7131    4.5000   -5.3214 H         1 <0>         0.4196
     10 S1          0.2593    2.5572   -4.8824 S.3       1 <0>         0.1167
     11 C6          1.9415    2.1383   -4.5670 C.ar      1 <0>        -0.2138
     12 C7          2.3029    1.5911   -3.3440 C.ar      1 <0>        -0.0052
     13 C8          3.6260    1.2634   -3.0993 C.ar      1 <0>         0.0256
     14 C9          4.5943    1.4824   -4.0782 C.ar      1 <0>         0.1717
     15 C10         4.2349    2.0277   -5.2984 C.ar      1 <0>        -0.1961
     16 C11         2.9088    2.3513   -5.5482 C.ar      1 <0>         0.3038
     17 N3          2.5427    2.8980   -6.7850 N.pl3     1 <0>        -0.8559
     18 O2          5.8904    1.1570   -3.8210 O.3       1 <0>        -0.2984
     19 C12         6.3337    1.3019   -2.4693 C.3       1 <0>         0.0509
     20 C13         5.3188    0.6931   -1.5355 C.2       1 <0>         0.4897
     21 O3          5.6764    0.1917   -0.4904 O.2       1 <0>        -0.5104
     22 N4          4.0095    0.7079   -1.8676 N.am      1 <0>        -0.6558
     23 H2          2.5768    7.0600   -2.6829 H         1 <0>         0.0871
     24 H3          3.4476    6.4054   -4.0906 H         1 <0>         0.0817
     25 H4          2.6161    7.9747   -4.2094 H         1 <0>         0.0830
     26 H5          0.2053    8.0809   -4.4071 H         1 <0>         0.1560
     27 H6          1.5540    1.4214   -2.5845 H         1 <0>         0.1444
     28 H7          4.9848    2.1967   -6.0570 H         1 <0>         0.1475
     29 H8          1.6165    3.1282   -6.9585 H         1 <0>         0.4032
     30 H9          3.2153    3.0464   -7.4680 H         1 <0>         0.4064
     31 H10         7.2908    0.7953   -2.3451 H         1 <0>         0.1498
     32 H11         6.4511    2.3604   -2.2374 H         1 <0>         0.1049
     33 H12         3.3443    0.3408   -1.2645 H         1 <0>         0.4169
@<TRIPOS>BOND
     1    1   23 1
     2    1   24 1
     3    1   25 1
     4    1    2 1
     5    2    3 2
     6    2    8 1
     7    3    4 1
     8    3   26 1
     9    4    6 am
    10    4    5 2
    11    6    7 1
    12    6    9 1
    13    7    8 2
    14    7   10 1
    15   10   11 1
    16   11   16 ar
    17   11   12 ar
    18   12   13 ar
    19   12   27 1
    20   13   22 1
    21   13   14 ar
    22   14   15 ar
    23   14   18 1
    24   15   16 ar
    25   15   28 1
    26   16   17 1
    27   17   29 1
    28   17   30 1
    29   18   19 1
    30   19   20 1
    31   19   31 1
    32   19   32 1
    33   20   21 2
    34   20   22 am
    35   22   33 1
@<TRIPOS>MOLECULE
ZINC38008943
   33    34     0     0     0
SMALL
USER_CHARGES

@<TRIPOS>ATOM
      1 C1         -0.0167    1.3782    0.0096 C.ar      1 <0>        -0.0724
      2 C2          1.1703    2.0860    0.0021 C.ar      1 <0>        -0.1559
      3 C3          2.3786    1.4101   -0.0131 C.ar      1 <0>         0.1086
      4 C4          2.3962    0.0256   -0.0207 C.ar      1 <0>        -0.1545
      5 C5          1.2079   -0.6800   -0.0132 C.ar      1 <0>        -0.0687
      6 C6          0.0021   -0.0041    0.0020 C.ar      1 <0>        -0.1156
      7 C7         -1.2930   -0.7747    0.0103 C.3       1 <0>         0.1579
      8 N1         -1.7258   -1.0170   -1.3682 N.pl3     1 <0>        -1.1115
      9 S1         -2.8986   -2.1432   -1.6819 S.o2      1 <0>         2.6965
     10 O1         -3.1131   -2.1257   -3.0865 O.2       1 <0>        -0.9496
     11 O2         -2.5262   -3.3229   -0.9828 O.2       1 <0>        -0.9445
     12 C8         -4.3878   -1.5658   -0.9379 C.ar      1 <0>        -0.5861
     13 C9         -4.7039   -1.9020    0.3720 C.ar      1 <0>        -0.1448
     14 C10        -5.8779   -1.4332    0.9259 C.ar      1 <0>         0.1418
     15 N2         -6.6994   -0.6724    0.2274 N.ar      1 <0>        -0.4920
     16 C11        -6.4337   -0.3300   -1.0237 C.ar      1 <0>         0.3982
     17 C12        -5.2654   -0.7627   -1.6433 C.ar      1 <0>        -0.1351
     18 N3         -7.3272    0.4733   -1.7226 N.pl3     1 <0>        -0.5714
     19 N4         -8.4735    0.9058   -1.1184 N.3       1 <0>        -0.5968
     20 F1          3.5396    2.1009   -0.0209 F         1 <0>        -0.1366
     21 H1         -0.9592    1.9052    0.0260 H         1 <0>         0.1351
     22 H2          1.1554    3.1659    0.0077 H         1 <0>         0.1383
     23 H3          3.3381   -0.5027   -0.0329 H         1 <0>         0.1397
     24 H4          1.2213   -1.7599   -0.0195 H         1 <0>         0.1391
     25 H5         -1.1453   -1.7280    0.5176 H         1 <0>         0.0952
     26 H6         -2.0553   -0.1984    0.5345 H         1 <0>         0.0783
     27 H7         -1.3255   -0.5177   -2.0971 H         1 <0>         0.4226
     28 H8         -4.0379   -2.5244    0.9513 H         1 <0>         0.1513
     29 H9         -6.1277   -1.6925    1.9441 H         1 <0>         0.1683
     30 H10        -5.0489   -0.4787   -2.6625 H         1 <0>         0.1484
     31 H11        -7.1368    0.7267   -2.6394 H         1 <0>         0.4143
     32 H12        -8.2670    1.4026   -0.2648 H         1 <0>         0.3446
     33 H13        -9.0198    1.4766   -1.7460 H         1 <0>         0.3574
@<TRIPOS>BOND
     1    1    6 ar
     2    1    2 ar
     3    1   21 1
     4    2    3 ar
     5    2   22 1
     6    3    4 ar
     7    3   20 1
     8    4    5 ar
     9    4   23 1
    10    5    6 ar
    11    5   24 1
    12    6    7 1
    13    7    8 1
    14    7   25 1
    15    7   26 1
    16    8    9 1
    17    8   27 1
    18    9   10 2
    19    9   11 2
    20    9   12 1
    21   12   17 ar
    22   12   13 ar
    23   13   14 ar
    24   13   28 1
    25   14   15 ar
    26   14   29 1
    27   15   16 ar
    28   16   17 ar
    29   16   18 1
    30   17   30 1
    31   18   19 1
    32   18   31 1
    33   19   32 1
    34   19   33 1
@<TRIPOS>MOLECULE
ZINC47962800
   34    35     0     0     0
SMALL
USER_CHARGES

@<TRIPOS>ATOM
      1 C1         -0.0167    1.3777    0.0096 C.ar      1 <0>        -0.1066
      2 C2          1.1710    2.0855    0.0021 C.ar      1 <0>        -0.0926
      3 C3          2.3777    1.4116   -0.0130 C.ar      1 <0>        -0.1039
      4 C4          2.3977    0.0294   -0.0210 C.ar      1 <0>        -0.0892
      5 C5          1.2098   -0.6793   -0.0135 C.ar      1 <0>        -0.0371
      6 C6          0.0021   -0.0041    0.0020 C.ar      1 <0>        -0.0980
      7 Cl1         1.2341   -2.4151   -0.0242 Cl        1 <0>        -0.0627
      8 C7          3.6718    2.1839   -0.0212 C.3       1 <0>         0.1606
      9 N1          4.1043    2.4267    1.3572 N.am      1 <0>        -0.6924
     10 C8          5.2445    3.1044    1.5963 C.2       1 <0>         0.5171
     11 O1          5.9130    3.5135    0.6696 O.2       1 <0>        -0.5000
     12 C9          5.6852    3.3519    3.0011 C.2       1 <0>         0.5000
     13 O2          5.0167    2.9428    3.9279 O.2       1 <0>        -0.4801
     14 N2          6.8254    4.0296    3.2401 N.am      1 <0>        -0.5823
     15 C10         7.2340    4.2591    4.5424 C.2       1 <0>         0.0718
     16 C11         8.3659    4.9362    4.9748 C.2       1 <0>        -0.2601
     17 C12         8.5550    5.0316    6.4035 C.2       1 <0>        -0.1024
     18 C13         7.6063    4.4493    7.1614 C.2       1 <0>        -0.2475
     19 S1          6.4711    3.7889    5.9608 S.3       1 <0>         0.2907
     20 C14         9.3209    5.5241    4.0297 C.2       1 <0>         0.5874
     21 O3          9.1309    5.4248    2.8317 O.2       1 <0>        -0.5575
     22 N3         10.4088    6.1745    4.4878 N.am      1 <0>        -0.8475
     23 H1         -0.9592    1.9048    0.0259 H         1 <0>         0.1374
     24 H2          1.1559    3.1654    0.0076 H         1 <0>         0.1335
     25 H3          3.3407   -0.4970   -0.0336 H         1 <0>         0.1371
     26 H4         -0.9257   -0.5568    0.0079 H         1 <0>         0.1371
     27 H5          4.4349    1.6086   -0.5454 H         1 <0>         0.0895
     28 H6          3.5229    3.1370   -0.5286 H         1 <0>         0.0909
     29 H7          3.5700    2.0998    2.0979 H         1 <0>         0.4168
     30 H8          7.3597    4.3566    2.4994 H         1 <0>         0.4453
     31 H9          9.4046    5.5381    6.8371 H         1 <0>         0.1452
     32 H10         7.5465    4.3991    8.2385 H         1 <0>         0.1920
     33 H11        10.5602    6.2537    5.4426 H         1 <0>         0.4017
     34 H12        11.0404    6.5633    3.8627 H         1 <0>         0.4058
@<TRIPOS>BOND
     1    1    6 ar
     2    1    2 ar
     3    1   23 1
     4    2    3 ar
     5    2   24 1
     6    3    4 ar
     7    3    8 1
     8    4    5 ar
     9    4   25 1
    10    5    6 ar
    11    5    7 1
    12    6   26 1
    13    8    9 1
    14    8   27 1
    15    8   28 1
    16    9   10 am
    17    9   29 1
    18   10   11 2
    19   10   12 1
    20   12   13 2
    21   12   14 am
    22   14   15 1
    23   14   30 1
    24   15   19 1
    25   15   16 2
    26   16   17 1
    27   16   20 1
    28   17   18 2
    29   17   31 1
    30   18   19 1
    31   18   32 1
    32   20   21 2
    33   20   22 am
    34   22   33 1
    35   22   34 1
@<TRIPOS>MOLECULE
ZINC61330387
   39    42     0     0     0
SMALL
USER_CHARGES

@<TRIPOS>ATOM
      1 C1         -0.0168    1.3905    0.0097 C.2       1 <0>        -0.1366
      2 C2          1.1445    2.0839    0.0023 C.2       1 <0>        -0.1797
      3 S1          2.3564    0.7713   -0.0163 S.3       1 <0>         0.0360
      4 C3          1.2274   -0.5954   -0.0119 C.2       1 <0>        -0.1384
      5 C4          0.0021   -0.0041    0.0020 C.2       1 <0>        -0.1373
      6 C5         -1.2636   -0.8563    0.0075 C.3       1 <0>         0.2109
      7 H1         -2.0015   -0.4188   -0.6649 H         1 <0>         0.1011
      8 C6         -0.9105   -2.2665   -0.4667 C.3       1 <0>        -0.1304
      9 C7          0.2545   -2.8208    0.3582 C.3       1 <0>        -0.1144
     10 C8          1.5331   -2.0579   -0.0204 C.3       1 <0>        -0.0436
     11 N1         -1.8104   -0.9145    1.3654 N.am      1 <0>        -0.7207
     12 C9         -2.6246    0.0647    1.8066 C.2       1 <0>         0.6067
     13 O1         -2.9056    0.9975    1.0769 O.2       1 <0>        -0.5360
     14 C10        -3.1712    0.0065    3.1640 C.2       1 <0>        -0.1447
     15 C11        -4.0243    0.9287    3.7639 C.2       1 <0>         0.1994
     16 C12        -4.2573    0.4276    5.0551 C.2       1 <0>         0.0088
     17 N2         -3.5905   -0.6894    5.1794 N.2       1 <0>        -0.2289
     18 N3         -2.9513   -0.9720    4.1023 N.pl3     1 <0>        -0.3819
     19 H2         -2.3953   -1.7561    3.9719 H         1 <0>         0.4442
     20 C13        -5.1230    1.0655    6.1109 C.3       1 <0>        -0.0757
     21 C14        -5.0824    0.4629    7.5167 C.3       1 <0>        -0.1636
     22 C15        -6.3134    0.2575    6.6315 C.3       1 <0>        -0.1661
     23 N4         -4.5364    2.0975    3.2041 N.pl3     1 <0>        -0.8378
     24 H3         -0.9596    1.9172    0.0260 H         1 <0>         0.1399
     25 H4          1.2990    3.1527    0.0061 H         1 <0>         0.1848
     26 H5         -1.7782   -2.9156   -0.3487 H         1 <0>         0.0786
     27 H6         -0.6258   -2.2338   -1.5183 H         1 <0>         0.0861
     28 H7          0.0483   -2.6843    1.4198 H         1 <0>         0.0641
     29 H8          0.3838   -3.8812    0.1418 H         1 <0>         0.0811
     30 H9          1.8592   -2.3593   -1.0159 H         1 <0>         0.0882
     31 H10         2.3180   -2.2734    0.7047 H         1 <0>         0.0840
     32 H11        -1.5865   -1.6579    1.9470 H         1 <0>         0.3932
     33 H12        -5.2449    2.1456    6.0294 H         1 <0>         0.1182
     34 H13        -4.4297   -0.3950    7.6778 H         1 <0>         0.1023
     35 H14        -5.1776    1.1465    8.3603 H         1 <0>         0.0981
     36 H15        -7.2183    0.8061    6.8928 H         1 <0>         0.0992
     37 H16        -6.4704   -0.7355    6.2103 H         1 <0>         0.0951
     38 H17        -4.3030    2.3426    2.2951 H         1 <0>         0.4130
     39 H18        -5.1264    2.6660    3.7234 H         1 <0>         0.4027
@<TRIPOS>BOND
     1    1    5 1
     2    1    2 2
     3    1   24 1
     4    2    3 1
     5    2   25 1
     6    3    4 1
     7    4   10 1
     8    4    5 2
     9    5    6 1
    10    6    7 1
    11    6    8 1
    12    6   11 1
    13    8    9 1
    14    8   26 1
    15    8   27 1
    16    9   10 1
    17    9   28 1
    18    9   29 1
    19   10   30 1
    20   10   31 1
    21   11   12 am
    22   11   32 1
    23   12   13 2
    24   12   14 1
    25   14   18 1
    26   14   15 2
    27   15   16 1
    28   15   23 1
    29   16   17 2
    30   16   20 1
    31   17   18 1
    32   18   19 1
    33   20   22 1
    34   20   21 1
    35   20   33 1
    36   21   22 1
    37   21   34 1
    38   21   35 1
    39   22   36 1
    40   22   37 1
    41   23   38 1
    42   23   39 1
@<TRIPOS>MOLECULE
ZINC01121765
   39    41     0     0     0
SMALL
USER_CHARGES
3-(2,5-dioxabicyclo[4.4.0]deca-7,9,11-trien-8-yl)-1-(4-sulfamoylphenyl)-thiourea
@<TRIPOS>ATOM
      1 C1          4.2668   -4.7727    1.1689 C.ar      1 <0>        -0.0916
      2 C2          4.2870   -6.1535    1.1544 C.ar      1 <0>        -0.0106
      3 C3          4.8852   -6.8269    0.1052 C.ar      1 <0>        -0.6700
      4 C4          5.4595   -6.1206   -0.9358 C.ar      1 <0>        -0.0131
      5 C5          5.4373   -4.7397   -0.9304 C.ar      1 <0>        -0.1420
      6 C6          4.8377   -4.0604    0.1221 C.ar      1 <0>         0.1812
      7 N1          4.8139   -2.6618    0.1308 N.pl3     1 <0>        -0.6337
      8 C7          3.6772   -2.0091    0.4445 C.2       1 <0>         0.5450
      9 S1          2.2934   -2.8884    0.9376 S.2       1 <0>        -0.5711
     10 N2          3.6298   -0.6643    0.3700 N.pl3     1 <0>        -0.6160
     11 C8          2.4784    0.0198    0.7802 C.ar      1 <0>         0.1124
     12 C9          2.5892    1.1484    1.5814 C.ar      1 <0>        -0.1096
     13 C10         1.4539    1.8227    1.9868 C.ar      1 <0>        -0.1107
     14 C11         0.2005    1.3753    1.5957 C.ar      1 <0>         0.0633
     15 C12         0.0865    0.2474    0.7916 C.ar      1 <0>         0.0580
     16 C13         1.2262   -0.4298    0.3857 C.ar      1 <0>        -0.0607
     17 O1         -1.1343   -0.2016    0.3907 O.3       1 <0>        -0.3003
     18 C14        -2.2686    0.2789    1.1201 C.3       1 <0>         0.0199
     19 C15        -2.1209    1.7965    1.2937 C.3       1 <0>         0.0196
     20 O2         -0.9079    2.0484    2.0124 O.3       1 <0>        -0.3052
     21 S2          4.9152   -8.5886    0.0942 S.o2      1 <0>         2.7013
     22 O3          3.8327   -9.0183    0.9084 O.2       1 <0>        -0.9593
     23 O4          5.0508   -8.9840   -1.2639 O.2       1 <0>        -0.9624
     24 N3          6.3032   -9.0594    0.8651 N.pl3     1 <0>        -1.2499
     25 H1          3.8033   -4.2473    1.9908 H         1 <0>         0.1597
     26 H2          3.8390   -6.7081    1.9657 H         1 <0>         0.1501
     27 H3          5.9257   -6.6494   -1.7540 H         1 <0>         0.1493
     28 H4          5.8854   -4.1887   -1.7441 H         1 <0>         0.1371
     29 H5          5.6154   -2.1617   -0.0889 H         1 <0>         0.4124
     30 H6          4.3932   -0.1701    0.0324 H         1 <0>         0.4113
     31 H7          3.5636    1.4991    1.8880 H         1 <0>         0.1354
     32 H8          1.5423    2.7003    2.6101 H         1 <0>         0.1425
     33 H9          1.1394   -1.3079   -0.2370 H         1 <0>         0.1605
     34 H10        -3.1815    0.0594    0.5665 H         1 <0>         0.1246
     35 H11        -2.3072   -0.2014    2.0978 H         1 <0>         0.0801
     36 H12        -2.0765    2.2758    0.3157 H         1 <0>         0.0798
     37 H13        -2.9689    2.1865    1.8566 H         1 <0>         0.1246
     38 H14         6.9126   -8.3920    1.2173 H         1 <0>         0.4165
     39 H15         6.5067  -10.0026    0.9643 H         1 <0>         0.4216
@<TRIPOS>BOND
     1    1    6 ar
     2    1    2 ar
     3    1   25 1
     4    2    3 ar
     5    2   26 1
     6    3    4 ar
     7    3   21 1
     8    4    5 ar
     9    4   27 1
    10    5    6 ar
    11    5   28 1
    12    6    7 1
    13    7    8 1
    14    7   29 1
    15    8    9 2
    16    8   10 1
    17   10   11 1
    18   10   30 1
    19   11   16 ar
    20   11   12 ar
    21   12   13 ar
    22   12   31 1
    23   13   14 ar
    24   13   32 1
    25   14   20 1
    26   14   15 ar
    27   15   16 ar
    28   15   17 1
    29   16   33 1
    30   17   18 1
    31   18   19 1
    32   18   34 1
    33   18   35 1
    34   19   20 1
    35   19   36 1
    36   19   37 1
    37   21   22 2
    38   21   23 2
    39   21   24 1
    40   24   38 1
    41   24   39 1
@<TRIPOS>MOLECULE
ZINC35339742
   37    38     0     0     0
SMALL
USER_CHARGES

@<TRIPOS>ATOM
      1 C1         -0.0178    1.4608    0.0101 C.3       1 <0>         0.0829
      2 N1          0.0021   -0.0041    0.0020 N.pl3     1 <0>        -1.1221
      3 S1          0.7184   -0.8155   -1.2513 S.o2      1 <0>         2.6995
      4 O1          0.5990   -2.2010   -0.9591 O.2       1 <0>        -0.9630
      5 O2          0.2109   -0.2430   -2.4487 O.2       1 <0>        -0.9586
      6 C2          2.4385   -0.4369   -1.2016 C.ar      1 <0>        -0.6785
      7 C3          2.9238    0.6568   -1.8944 C.ar      1 <0>        -0.0231
      8 C4          4.2725    0.9594   -1.8596 C.ar      1 <0>        -0.1797
      9 C5          5.1426    0.1654   -1.1281 C.ar      1 <0>         0.1984
     10 C6          4.6530   -0.9376   -0.4288 C.ar      1 <0>         0.1374
     11 C7          3.2982   -1.2310   -0.4654 C.ar      1 <0>        -0.0588
     12 N2          5.5262   -1.7438    0.3114 N.pl3     1 <0>        -0.8823
     13 N3          6.5088    0.4697   -1.0918 N.pl3     1 <0>        -0.7296
     14 C8          7.0209    1.6286   -1.8274 C.3       1 <0>         0.1490
     15 H1          6.2791    2.4271   -1.8188 H         1 <0>         0.1085
     16 C9          7.3336    1.2260   -3.2782 C.3       1 <0>        -0.1475
     17 C10         8.1641    2.3360   -3.9665 C.3       1 <0>        -0.5750
     18 S2          9.0591    3.1045   -2.5556 S.o2      1 <0>         2.3783
     19 O3         10.4428    2.7999   -2.6648 O.2       1 <0>        -0.9303
     20 O4          8.6491    4.4593   -2.4308 O.2       1 <0>        -0.9275
     21 C11         8.3385    2.1283   -1.1691 C.3       1 <0>        -0.5957
     22 H2          1.0048    1.8381    0.0023 H         1 <0>         0.0607
     23 H3         -0.5450    1.8219   -0.8730 H         1 <0>         0.0691
     24 H4         -0.5280    1.8123    0.9069 H         1 <0>         0.0826
     25 H5         -0.4044   -0.4986    0.7308 H         1 <0>         0.4186
     26 H6          2.2475    1.2763   -2.4647 H         1 <0>         0.1393
     27 H7          4.6483    1.8141   -2.4025 H         1 <0>         0.1332
     28 H8          2.9151   -2.0820    0.0782 H         1 <0>         0.1390
     29 H9          6.4732   -1.5355    0.3384 H         1 <0>         0.3921
     30 H10         5.1842   -2.5106    0.7972 H         1 <0>         0.4040
     31 H11         7.1162   -0.0867   -0.5796 H         1 <0>         0.4020
     32 H12         7.9009    0.2952   -3.2811 H         1 <0>         0.0920
     33 H13         6.4006    1.0817   -3.8229 H         1 <0>         0.1024
     34 H14         8.8658    1.9065   -4.6815 H         1 <0>         0.1459
     35 H15         7.5117    3.0619   -4.4519 H         1 <0>         0.1438
     36 H16         8.1325    2.7620   -0.3065 H         1 <0>         0.1486
     37 H17         8.9845    1.2936   -0.8971 H         1 <0>         0.1442
@<TRIPOS>BOND
     1    1    2 1
     2    1   22 1
     3    1   23 1
     4    1   24 1
     5    2    3 1
     6    2   25 1
     7    3    4 2
     8    3    5 2
     9    3    6 1
    10    6   11 ar
    11    6    7 ar
    12    7    8 ar
    13    7   26 1
    14    8    9 ar
    15    8   27 1
    16    9   10 ar
    17    9   13 1
    18   10   11 ar
    19   10   12 1
    20   11   28 1
    21   12   29 1
    22   12   30 1
    23   13   14 1
    24   13   31 1
    25   14   15 1
    26   14   21 1
    27   14   16 1
    28   16   17 1
    29   16   32 1
    30   16   33 1
    31   17   18 1
    32   17   34 1
    33   17   35 1
    34   18   19 2
    35   18   20 2
    36   18   21 1
    37   21   36 1
    38   21   37 1
@<TRIPOS>MOLECULE
ZINC44791812
   48    48     0     0     0
SMALL
USER_CHARGES

@<TRIPOS>ATOM
      1 C1          1.6121   -2.0343   -1.6269 C.3       1 <0>         0.0549
      2 N1          0.6584   -1.4547   -0.6779 N.am      1 <0>        -0.6023
      3 C2          0.4895   -2.0532    0.6486 C.3       1 <0>         0.0840
      4 C3          1.4682   -1.4041    1.6293 C.3       1 <0>         0.0959
      5 H1          2.4827   -1.4893    1.2401 H         1 <0>         0.1037
      6 C4          1.3798   -2.1130    2.9823 C.3       1 <0>         0.0300
      7 O1          2.3740   -1.5850    3.8626 O.3       1 <0>        -0.3802
      8 C5          2.3773   -2.1823    5.1607 C.3       1 <0>         0.0296
      9 O2          1.1347   -0.0241    1.7920 O.3       1 <0>        -0.5406
     10 C6         -0.0636   -0.3709   -1.0251 C.2       1 <0>         0.5453
     11 O3         -0.7809    0.1670   -0.2084 O.2       1 <0>        -0.5095
     12 C7          0.0204    0.1725   -2.4282 C.3       1 <0>        -0.0082
     13 C8         -1.1048    1.1438   -2.6622 C.3       1 <0>        -0.0998
     14 C9         -2.3194    0.8687   -1.7551 C.3       1 <0>        -0.1113
     15 C10        -2.6388   -0.6328   -1.6235 C.3       1 <0>        -0.1370
     16 C11        -2.5217   -1.3634   -2.9337 C.3       1 <0>        -0.1216
     17 C12        -1.1055   -1.9662   -3.0337 C.3       1 <0>        -0.1350
     18 C13        -0.1118   -0.9837   -3.4404 C.3       1 <0>        -0.1101
     19 C14         1.3432    0.8676   -2.6235 C.2       1 <0>         0.3839
     20 N2          2.1158    0.5233   -3.6000 N.2       1 <0>        -0.4197
     21 O4          3.3587    1.1764   -3.7835 O.3       1 <0>        -0.4247
     22 N3          1.7285    1.8697   -1.7609 N.pl3     1 <0>        -0.8620
     23 H2          1.0983   -2.7533   -2.2650 H         1 <0>         0.0677
     24 H3          2.0391   -1.2424   -2.2423 H         1 <0>         0.0895
     25 H4          2.4086   -2.5384   -1.0795 H         1 <0>         0.0702
     26 H5         -0.5317   -1.8905    0.9932 H         1 <0>         0.0916
     27 H6          0.6878   -3.1235    0.5923 H         1 <0>         0.0896
     28 H7          0.3913   -1.9525    3.4127 H         1 <0>         0.0545
     29 H8          1.5470   -3.1812    2.8444 H         1 <0>         0.0577
     30 H9          2.5652   -3.2520    5.0680 H         1 <0>         0.0414
     31 H10         3.1597   -1.7273    5.7681 H         1 <0>         0.0883
     32 H11         1.4095   -2.0233    5.6363 H         1 <0>         0.0419
     33 H12         0.2436    0.1273    2.1358 H         1 <0>         0.3765
     34 H13        -0.7438    2.1544   -2.4713 H         1 <0>         0.0681
     35 H14        -1.4195    1.0747   -3.7035 H         1 <0>         0.0746
     36 H15        -2.1163    1.2731   -0.7635 H         1 <0>         0.0973
     37 H16        -3.1896    1.3782   -2.1687 H         1 <0>         0.0492
     38 H17        -1.9480   -1.0789   -0.9080 H         1 <0>         0.0763
     39 H18        -3.6553   -0.7453   -1.2465 H         1 <0>         0.0543
     40 H19        -3.2631   -2.1613   -2.9755 H         1 <0>         0.0618
     41 H20        -2.6822   -0.6671   -3.7568 H         1 <0>         0.0660
     42 H21        -0.8246   -2.3706   -2.0612 H         1 <0>         0.0675
     43 H22        -1.1179   -2.7778   -3.7612 H         1 <0>         0.0696
     44 H23        -0.3968   -0.5738   -4.4094 H         1 <0>         0.0788
     45 H24         0.8543   -1.4788   -3.5390 H         1 <0>         0.0916
     46 H25         3.8663    0.8507   -4.5394 H         1 <0>         0.4000
     47 H26         1.1873    2.0742   -0.9824 H         1 <0>         0.4020
     48 H27         2.5411    2.3710   -1.9320 H         1 <0>         0.4088
@<TRIPOS>BOND
     1    1    2 1
     2    1   23 1
     3    1   24 1
     4    1   25 1
     5    2    3 1
     6    2   10 am
     7    3    4 1
     8    3   26 1
     9    3   27 1
    10    4    5 1
    11    4    6 1
    12    4    9 1
    13    6    7 1
    14    6   28 1
    15    6   29 1
    16    7    8 1
    17    8   30 1
    18    8   31 1
    19    8   32 1
    20    9   33 1
    21   10   11 2
    22   10   12 1
    23   12   18 1
    24   12   13 1
    25   12   19 1
    26   13   14 1
    27   13   34 1
    28   13   35 1
    29   14   15 1
    30   14   36 1
    31   14   37 1
    32   15   16 1
    33   15   38 1
    34   15   39 1
    35   16   17 1
    36   16   40 1
    37   16   41 1
    38   17   18 1
    39   17   42 1
    40   17   43 1
    41   18   44 1
    42   18   45 1
    43   19   20 2
    44   19   22 1
    45   20   21 1
    46   21   46 1
    47   22   47 1
    48   22   48 1
@<TRIPOS>MOLECULE
ZINC59332336
   45    47     0     0     0
SMALL
USER_CHARGES

@<TRIPOS>ATOM
      1 C1         -0.0164    1.3571    0.0095 C.ar      1 <0>        -0.1044
      2 C2          1.1699    2.0898    0.0021 C.ar      1 <0>        -0.1009
      3 C3          2.3792    1.4680   -0.0132 C.ar      1 <0>        -0.0864
      4 C4          2.4412    0.0611   -0.0213 C.ar      1 <0>         0.1236
      5 C5          1.2317   -0.6821   -0.0132 C.ar      1 <0>        -0.0856
      6 C6          0.0021   -0.0041    0.0020 C.ar      1 <0>        -0.1011
      7 C7          1.2911   -2.0879   -0.0212 C.ar      1 <0>        -0.0587
      8 C8          2.5200   -2.6827   -0.0366 C.ar      1 <0>        -0.1258
      9 C9          3.6777   -1.8913   -0.0438 C.ar      1 <0>         0.1144
     10 N1          3.6125   -0.5739   -0.0358 N.ar      1 <0>        -0.4433
     11 C10         5.0057   -2.5506   -0.0600 C.2       1 <0>         0.5720
     12 O1          5.0818   -3.7632   -0.0667 O.2       1 <0>        -0.5259
     13 N2          6.1283   -1.8049   -0.0672 N.am      1 <0>        -0.7067
     14 C11         7.4404   -2.4563   -0.0831 C.3       1 <0>         0.1556
     15 C12         8.5221   -1.4071   -0.0884 C.ar      1 <0>        -0.0829
     16 C13         9.0009   -0.9175   -1.2906 C.ar      1 <0>        -0.1057
     17 C14         9.9911    0.0430   -1.3025 C.ar      1 <0>        -0.0577
     18 C15        10.5099    0.5209   -0.0981 C.ar      1 <0>        -0.1272
     19 C16        10.0224    0.0228    1.1112 C.ar      1 <0>        -0.0850
     20 C17         9.0281   -0.9335    1.1091 C.ar      1 <0>        -0.1048
     21 C18        11.5715    1.5499   -0.1033 C.2       1 <0>         0.5628
     22 O2         11.9943    1.9816   -1.1579 O.2       1 <0>        -0.5330
     23 N3         12.0704    2.0093    1.0614 N.am      1 <0>        -0.7166
     24 C19        13.1223    3.0289    1.0563 C.3       1 <0>         0.0976
     25 C20        13.5013    3.3669    2.4752 C.2       1 <0>         0.5142
     26 O3         12.9472    2.8107    3.3997 O.2       1 <0>        -0.5397
     27 N4         14.4559    4.2871    2.7168 N.am      1 <0>        -0.8471
     28 H1         -0.9631    1.8767    0.0259 H         1 <0>         0.1317
     29 H2          1.1276    3.1690    0.0083 H         1 <0>         0.1339
     30 H3          3.2885    2.0508   -0.0195 H         1 <0>         0.1389
     31 H4         -0.9241   -0.5596    0.0078 H         1 <0>         0.1346
     32 H5          0.3884   -2.6808   -0.0151 H         1 <0>         0.1483
     33 H6          2.6003   -3.7597   -0.0427 H         1 <0>         0.1520
     34 H7          6.0675   -0.8368   -0.0618 H         1 <0>         0.4139
     35 H8          7.5459   -3.0825    0.8028 H         1 <0>         0.0843
     36 H9          7.5287   -3.0737   -0.9771 H         1 <0>         0.0845
     37 H10         8.5988   -1.2884   -2.2219 H         1 <0>         0.1344
     38 H11        10.3642    0.4241   -2.2416 H         1 <0>         0.1406
     39 H12        10.4197    0.3884    2.0466 H         1 <0>         0.1310
     40 H13         8.6470   -1.3166    2.0442 H         1 <0>         0.1336
     41 H14        11.7329    1.6648    1.9031 H         1 <0>         0.4126
     42 H15        13.9959    2.6470    0.5280 H         1 <0>         0.1043
     43 H16        12.7573    3.9251    0.5545 H         1 <0>         0.1043
     44 H17        14.8990    4.7318    1.9774 H         1 <0>         0.4067
     45 H18        14.6998    4.5046    3.6301 H         1 <0>         0.4086
@<TRIPOS>BOND
     1    1    6 ar
     2    1    2 ar
     3    1   28 1
     4    2    3 ar
     5    2   29 1
     6    3    4 ar
     7    3   30 1
     8    4   10 ar
     9    4    5 ar
    10    5    6 ar
    11    5    7 ar
    12    6   31 1
    13    7    8 ar
    14    7   32 1
    15    8    9 ar
    16    8   33 1
    17    9   10 ar
    18    9   11 1
    19   11   12 2
    20   11   13 am
    21   13   14 1
    22   13   34 1
    23   14   15 1
    24   14   35 1
    25   14   36 1
    26   15   20 ar
    27   15   16 ar
    28   16   17 ar
    29   16   37 1
    30   17   18 ar
    31   17   38 1
    32   18   19 ar
    33   18   21 1
    34   19   20 ar
    35   19   39 1
    36   20   40 1
    37   21   22 2
    38   21   23 am
    39   23   24 1
    40   23   41 1
    41   24   25 1
    42   24   42 1
    43   24   43 1
    44   25   26 2
    45   25   27 am
    46   27   44 1
    47   27   45 1
@<TRIPOS>MOLECULE
ZINC64861357
   37    39     0     0     0
SMALL
USER_CHARGES

@<TRIPOS>ATOM
      1 C1         -0.0167    1.3779    0.0096 C.ar      1 <0>        -0.1392
      2 C2          1.1711    2.0854    0.0021 C.ar      1 <0>        -0.0395
      3 C3          2.3773    1.4107   -0.0130 C.ar      1 <0>        -0.1301
      4 C4          2.3960    0.0283   -0.0201 C.ar      1 <0>        -0.0002
      5 C5          1.2086   -0.6790   -0.0117 C.ar      1 <0>        -0.6768
      6 C6          0.0021   -0.0041    0.0020 C.ar      1 <0>        -0.0098
      7 S1          1.2325   -2.4408   -0.0219 S.o2      1 <0>         2.7003
      8 O1         -0.0129   -2.8607   -0.5621 O.2       1 <0>        -0.9605
      9 O2          2.4774   -2.8268   -0.5880 O.2       1 <0>        -0.9597
     10 N1          1.2558   -2.9393    1.5571 N.pl3     1 <0>        -1.2495
     11 C7          3.6720    2.1819   -0.0222 C.3       1 <0>         0.1618
     12 N2          4.1052    2.4254    1.3559 N.am      1 <0>        -0.7291
     13 C8          5.2460    3.1023    1.5941 C.2       1 <0>         0.5923
     14 O3          5.9161    3.5112    0.6645 O.2       1 <0>        -0.5341
     15 C9          5.6805    3.3465    2.9762 C.2       1 <0>        -0.2206
     16 C10         5.0448    2.9489    4.1151 C.2       1 <0>         0.1215
     17 N3          5.7479    3.3588    5.1994 N.pl3     1 <0>        -0.5638
     18 H1          5.4911    3.1919    6.1198 H         1 <0>         0.4261
     19 C11         6.8776    4.0444    4.8124 C.ar      1 <0>         0.2772
     20 C12         6.8930    4.0641    3.4071 C.ar      1 <0>        -0.1098
     21 C13         7.9401    4.6947    2.7388 C.ar      1 <0>        -0.0199
     22 C14         8.9375    5.2807    3.4981 C.ar      1 <0>        -0.1924
     23 C15         8.8619    5.2211    4.8802 C.ar      1 <0>         0.1400
     24 N4          7.8581    4.6266    5.4899 N.ar      1 <0>        -0.4958
     25 H2         -0.9591    1.9051    0.0259 H         1 <0>         0.1390
     26 H3          1.1565    3.1653    0.0076 H         1 <0>         0.1364
     27 H4          3.3385   -0.4989   -0.0326 H         1 <0>         0.1463
     28 H5         -0.9258   -0.5567    0.0079 H         1 <0>         0.1460
     29 H6          1.2543   -2.2843    2.2726 H         1 <0>         0.4161
     30 H7          1.2708   -3.8863    1.7666 H         1 <0>         0.4225
     31 H8          4.4344    1.6057   -0.5463 H         1 <0>         0.0845
     32 H9          3.5236    3.1349   -0.5302 H         1 <0>         0.0837
     33 H10         3.5710    2.0994    2.0970 H         1 <0>         0.3980
     34 H11         4.1201    2.3919    4.1484 H         1 <0>         0.1855
     35 H12         7.9726    4.7250    1.6597 H         1 <0>         0.1455
     36 H13         9.7667    5.7792    3.0181 H         1 <0>         0.1427
     37 H14         9.6415    5.6787    5.4712 H         1 <0>         0.1653
@<TRIPOS>BOND
     1    1    6 ar
     2    1    2 ar
     3    1   25 1
     4    2    3 ar
     5    2   26 1
     6    3    4 ar
     7    3   11 1
     8    4    5 ar
     9    4   27 1
    10    5    6 ar
    11    5    7 1
    12    6   28 1
    13    7    8 2
    14    7    9 2
    15    7   10 1
    16   10   29 1
    17   10   30 1
    18   11   12 1
    19   11   31 1
    20   11   32 1
    21   12   13 am
    22   12   33 1
    23   13   14 2
    24   13   15 1
    25   15   20 1
    26   15   16 2
    27   16   17 1
    28   16   34 1
    29   17   18 1
    30   17   19 1
    31   19   24 ar
    32   19   20 ar
    33   20   21 ar
    34   21   22 ar
    35   21   35 1
    36   22   23 ar
    37   22   36 1
    38   23   24 ar
    39   23   37 1
@<TRIPOS>MOLECULE
ZINC02117115
   55    56     0     0     0
SMALL
USER_CHARGES
2-[2-[2-(5-methoxy-4,7-dimethyl-2-oxo-chromen-3-yl)acetyl]aminoacetyl]amino-3-methyl-butanoic acid
@<TRIPOS>ATOM
      1 C1         12.3437   -2.2320    0.7375 C.3       1 <0>        -0.1202
      2 C2         11.1752   -1.2858    0.8396 C.ar      1 <0>         0.0085
      3 C3         10.6549   -0.7181   -0.3064 C.ar      1 <0>        -0.1758
      4 C4          9.5792    0.1544   -0.2244 C.ar      1 <0>         0.1906
      5 C5          9.0256    0.4542    1.0333 C.ar      1 <0>        -0.1835
      6 C6          7.8948    1.3801    1.1096 C.2       1 <0>         0.0599
      7 C7          7.4176    1.9070   -0.0483 C.2       1 <0>        -0.2181
      8 C8          8.0209    1.5632   -1.2755 C.2       1 <0>         0.5232
      9 O1          7.5869    2.0463   -2.3059 O.2       1 <0>        -0.4596
     10 O2          9.0608    0.7169   -1.3374 O.3       1 <0>        -0.2671
     11 C9          6.2511    2.8607   -0.0205 C.3       1 <0>        -0.0822
     12 C10         4.9651    2.0852   -0.1459 C.2       1 <0>         0.5194
     13 O3          4.9930    0.8770   -0.2479 O.2       1 <0>        -0.5374
     14 N1          3.7839    2.7343   -0.1448 N.am      1 <0>        -0.7135
     15 C11         2.5337    1.9804   -0.2667 C.3       1 <0>         0.0996
     16 C12         1.3672    2.9341   -0.2389 C.2       1 <0>         0.5027
     17 O4          1.5611    4.1262   -0.1281 O.2       1 <0>        -0.5497
     18 N2          0.1086    2.4623   -0.3371 N.am      1 <0>        -0.6887
     19 H1         -0.0465    1.5089   -0.4257 H         1 <0>         0.4070
     20 C13        -1.0257    3.3890   -0.3040 C.3       1 <0>         0.1049
     21 H2         -0.7995    4.2162    0.3688 H         1 <0>         0.0889
     22 C14        -1.2821    3.9317   -1.7113 C.3       1 <0>        -0.0903
     23 C15        -0.0365    4.6678   -2.2089 C.3       1 <0>        -0.1330
     24 C16        -1.5996    2.7705   -2.6557 C.3       1 <0>        -0.1398
     25 C17        -2.2525    2.6639    0.1861 C.2       1 <0>         0.4664
     26 O5         -2.1862    1.4933    0.4777 O.co2     1 <0>        -0.6347
     27 C18         7.2730    1.7351    2.4357 C.3       1 <0>        -0.1291
     28 C19         9.5627   -0.1293    2.1913 C.ar      1 <0>         0.1977
     29 C20        10.6356   -0.9962    2.0817 C.ar      1 <0>        -0.2378
     30 O6          9.0343    0.1547    3.4085 O.3       1 <0>        -0.2966
     31 C21         9.6354   -0.4776    4.5403 C.3       1 <0>         0.0172
     32 H3         13.2744   -1.6692    0.8101 H         1 <0>         0.0813
     33 H4         12.2945   -2.9588    1.5483 H         1 <0>         0.0737
     34 H5         12.3074   -2.7523   -0.2196 H         1 <0>         0.0762
     35 H6         11.0857   -0.9539   -1.2683 H         1 <0>         0.1450
     36 H7          6.3351    3.5618   -0.8508 H         1 <0>         0.1144
     37 H8          6.2536    3.4104    0.9208 H         1 <0>         0.1129
     38 H9          3.7616    3.7006   -0.0632 H         1 <0>         0.4124
     39 H10         2.4497    1.2793    0.5637 H         1 <0>         0.0976
     40 H11         2.5313    1.4307   -1.2080 H         1 <0>         0.0959
     41 H12        -2.1260    4.6211   -1.6867 H         1 <0>         0.0836
     42 H13         0.1896    5.4950   -1.5361 H         1 <0>         0.0584
     43 H14         0.8074    3.9784   -2.2335 H         1 <0>         0.0470
     44 H15        -0.2192    5.0545   -3.2115 H         1 <0>         0.0393
     45 H16        -2.4869    2.2461   -2.3012 H         1 <0>         0.0600
     46 H17        -1.7823    3.1572   -3.6583 H         1 <0>         0.0457
     47 H18        -0.7557    2.0811   -2.6804 H         1 <0>         0.0463
     48 H19         6.5545    0.9654    2.7177 H         1 <0>         0.0923
     49 H20         8.0514    1.8015    3.1958 H         1 <0>         0.0972
     50 H21         6.7634    2.6950    2.3527 H         1 <0>         0.0784
     51 H22        11.0542   -1.4486    2.9685 H         1 <0>         0.1400
     52 H23         9.5610   -1.5599    4.4339 H         1 <0>         0.0611
     53 H24        10.6850   -0.1900    4.6022 H         1 <0>         0.0603
     54 H25         9.1189   -0.1653    5.4479 H         1 <0>         0.1064
     55 O7         -3.4189    3.3186    0.2986 O.co2     1 <0>        -0.7544
@<TRIPOS>BOND
     1    1    2 1
     2    1   32 1
     3    1   33 1
     4    1   34 1
     5    2   29 ar
     6    2    3 ar
     7    3    4 ar
     8    3   35 1
     9    4   10 1
    10    4    5 ar
    11    5    6 1
    12    5   28 ar
    13    6    7 2
    14    6   27 1
    15    7    8 1
    16    7   11 1
    17    8    9 2
    18    8   10 1
    19   11   12 1
    20   11   36 1
    21   11   37 1
    22   12   13 2
    23   12   14 am
    24   14   15 1
    25   14   38 1
    26   15   16 1
    27   15   39 1
    28   15   40 1
    29   16   17 2
    30   16   18 am
    31   18   19 1
    32   18   20 1
    33   20   21 1
    34   20   22 1
    35   20   25 1
    36   22   23 1
    37   22   24 1
    38   22   41 1
    39   23   42 1
    40   23   43 1
    41   23   44 1
    42   24   45 1
    43   24   46 1
    44   24   47 1
    45   25   26 2
    46   25   55 1
    47   27   48 1
    48   27   49 1
    49   27   50 1
    50   28   29 ar
    51   28   30 1
    52   29   51 1
    53   30   31 1
    54   31   52 1
    55   31   53 1
    56   31   54 1
@<TRIPOS>MOLECULE
ZINC39480757
   44    46     0     0     0
SMALL
USER_CHARGES

@<TRIPOS>ATOM
      1 C1         -0.0167    1.3781    0.0096 C.ar      1 <0>        -0.1288
      2 C2          1.1709    2.0855    0.0021 C.ar      1 <0>        -0.1185
      3 C3          2.3773    1.4107   -0.0130 C.ar      1 <0>        -0.1138
      4 C4          2.3960    0.0285   -0.0201 C.ar      1 <0>        -0.0696
      5 C5          1.2084   -0.6789   -0.0117 C.ar      1 <0>        -0.1145
      6 C6          0.0021   -0.0041    0.0020 C.ar      1 <0>        -0.1201
      7 C7          3.7112   -0.7071   -0.0376 C.3       1 <0>        -0.0326
      8 C8          4.1644   -0.9594    1.3773 C.ar      1 <0>        -0.1174
      9 C9          4.9521   -0.0262    2.0255 C.ar      1 <0>        -0.0819
     10 C10         5.3714   -0.2516    3.3237 C.ar      1 <0>        -0.1708
     11 C11         5.0015   -1.4161    3.9794 C.ar      1 <0>         0.1958
     12 C12         4.2066   -2.3573    3.3256 C.ar      1 <0>         0.1201
     13 C13         3.7866   -2.1209    2.0254 C.ar      1 <0>        -0.0904
     14 N1          3.8300   -3.5354    3.9819 N.pl3     1 <0>        -0.6654
     15 C14         2.5870   -3.5987    4.7656 C.3       1 <0>         0.1482
     16 C15         2.9154   -4.1557    6.1549 C.3       1 <0>         0.0421
     17 N2          3.6250   -5.4339    6.0114 N.3       1 <0>        -0.7046
     18 C16         4.9134   -5.2544    5.3290 C.3       1 <0>         0.2405
     19 H1          5.5172   -4.5306    5.8764 H         1 <0>         0.0580
     20 C17         4.6638   -4.7443    3.9008 C.3       1 <0>         0.1336
     21 F1          5.5876   -6.4790    5.2749 F         1 <0>        -0.2030
     22 N3          5.4253   -1.6466    5.2938 N.pl3     1 <0>        -1.0743
     23 S1          5.5686   -0.3806    6.3517 S.o2      1 <0>         2.7699
     24 O1          6.1358   -0.9176    7.5788 O.2       1 <0>        -1.0787
     25 O2          6.4494    0.5942    5.7270 O.2       1 <0>        -1.0736
     26 O3          4.2303    0.1506    6.5586 O.3       1 <0>        -1.0730
     27 H2         -0.9591    1.9053    0.0259 H         1 <0>         0.1172
     28 H3          1.1563    3.1654    0.0076 H         1 <0>         0.1193
     29 H4          3.3051    1.9634   -0.0196 H         1 <0>         0.1213
     30 H5          1.2231   -1.7588   -0.0176 H         1 <0>         0.1188
     31 H6         -0.9258   -0.5567    0.0082 H         1 <0>         0.1180
     32 H7          3.5884   -1.6586   -0.5549 H         1 <0>         0.0766
     33 H8          4.4573   -0.1052   -0.5563 H         1 <0>         0.0788
     34 H9          5.2410    0.8813    1.5163 H         1 <0>         0.1204
     35 H10         5.9872    0.4792    3.8268 H         1 <0>         0.1653
     36 H11         3.1676   -2.8457    1.5177 H         1 <0>         0.1175
     37 H12         2.1639   -2.5989    4.8626 H         1 <0>         0.0811
     38 H13         1.8731   -4.2547    4.2675 H         1 <0>         0.0572
     39 H14         3.5470   -3.4472    6.6908 H         1 <0>         0.0464
     40 H15         1.9914   -4.3131    6.7114 H         1 <0>         0.0894
     41 H16         3.7495   -5.8809    6.9073 H         1 <0>         0.3482
     42 H17         4.1457   -5.5083    3.3211 H         1 <0>         0.0676
     43 H18         5.6145   -4.5022    3.4257 H         1 <0>         0.0818
     44 H19         5.6350   -2.5478    5.5848 H         1 <0>         0.3980
@<TRIPOS>BOND
     1    1    6 ar
     2    1    2 ar
     3    1   27 1
     4    2    3 ar
     5    2   28 1
     6    3    4 ar
     7    3   29 1
     8    4    5 ar
     9    4    7 1
    10    5    6 ar
    11    5   30 1
    12    6   31 1
    13    7    8 1
    14    7   32 1
    15    7   33 1
    16    8   13 ar
    17    8    9 ar
    18    9   10 ar
    19    9   34 1
    20   10   11 ar
    21   10   35 1
    22   11   12 ar
    23   11   22 1
    24   12   13 ar
    25   12   14 1
    26   13   36 1
    27   14   20 1
    28   14   15 1
    29   15   16 1
    30   15   37 1
    31   15   38 1
    32   16   17 1
    33   16   39 1
    34   16   40 1
    35   17   18 1
    36   17   41 1
    37   18   19 1
    38   18   20 1
    39   18   21 1
    40   20   42 1
    41   20   43 1
    42   22   23 1
    43   22   44 1
    44   23   24 2
    45   23   25 2
    46   23   26 1
@<TRIPOS>MOLECULE
ZINC33931425
   49    51     0     0     0
SMALL
USER_CHARGES

@<TRIPOS>ATOM
      1 C1          0.5935    2.0271    0.1224 C.3       1 <0>        -0.1621
      2 C2          0.4561    0.5050    0.1944 C.3       1 <0>         0.1581
      3 C3          1.2441   -0.0220    1.3954 C.3       1 <0>        -0.1665
      4 C4         -1.0199    0.1329    0.3499 C.3       1 <0>        -0.1490
      5 N1          0.9832   -0.0917   -1.0354 N.am      1 <0>        -0.5899
      6 C5          0.2307   -0.8558   -1.8925 C.2       1 <0>         0.5933
      7 O1         -0.9752   -0.9784   -1.9117 O.2       1 <0>        -0.4564
      8 C6          1.1961   -1.4813   -2.7661 C.3       1 <0>        -0.2157
      9 H1          1.6631   -2.2121   -2.1059 H         1 <0>         0.1339
     10 C7          1.2673   -2.1524   -4.0717 C.3       1 <0>         0.1254
     11 H2          0.9418   -3.1891   -3.9856 H         1 <0>         0.1560
     12 N2          2.7194   -2.0878   -4.4430 N.4       1 <0>        -0.4911
     13 C8          3.4167   -1.2717   -3.3964 C.3       1 <0>         0.0371
     14 C9          2.2853   -0.3439   -2.9046 C.3       1 <0>        -0.1185
     15 H3          2.0289    0.4619   -3.5923 H         1 <0>         0.1528
     16 C10         2.2743    0.0575   -1.4551 C.2       1 <0>         0.5510
     17 O2          3.2188    0.4339   -0.7949 O.2       1 <0>        -0.4091
     18 C11         3.9443   -2.1668   -2.2733 C.3       1 <0>        -0.1935
     19 C12         4.9786   -3.1120   -2.8281 C.2       1 <0>         0.4902
     20 O3          5.2671   -3.0733   -4.0121 O.co2     1 <0>        -0.6670
     21 O4          5.5270   -3.9153   -2.0930 O.co2     1 <0>        -0.6826
     22 C13         4.5328   -0.4630   -4.0057 C.2       1 <0>         0.5283
     23 O5          4.7726   -0.5558   -5.1975 O.co2     1 <0>        -0.6583
     24 O6          5.1961    0.2842   -3.3069 O.co2     1 <0>        -0.6370
     25 C14         0.4280   -1.4205   -5.0869 C.ar      1 <0>        -0.0929
     26 C15         0.9250   -0.2845   -5.7010 C.ar      1 <0>        -0.1205
     27 C16         0.1621    0.3904   -6.6313 C.ar      1 <0>        -0.0538
     28 C17        -1.1143   -0.0755   -6.9530 C.ar      1 <0>        -0.0127
     29 C18        -1.6094   -1.2228   -6.3298 C.ar      1 <0>        -0.0635
     30 C19        -0.8338   -1.8906   -5.4049 C.ar      1 <0>        -0.0803
     31 C20        -1.9120    0.6203   -7.9174 C.1       1 <0>         0.2513
     32 N3         -2.5449    1.1723   -8.6824 N.1       1 <0>        -0.4071
     33 H4          1.6450    2.2921    0.0116 H         1 <0>         0.0698
     34 H5          0.0321    2.4025   -0.7332 H         1 <0>         0.0618
     35 H6          0.2013    2.4710    1.0374 H         1 <0>         0.0767
     36 H7          0.8519    0.4219    2.3104 H         1 <0>         0.0742
     37 H8          1.1462   -1.1064    1.4467 H         1 <0>         0.0604
     38 H9          2.2955    0.2430    1.2846 H         1 <0>         0.0797
     39 H10        -1.5812    0.5083   -0.5057 H         1 <0>         0.0763
     40 H11        -1.1178   -0.9515    0.4012 H         1 <0>         0.0640
     41 H12        -1.4120    0.5768    1.2649 H         1 <0>         0.0698
     42 H13         3.1085   -3.0185   -4.4670 H         1 <0>         0.4373
     43 H14         4.3961   -1.5483   -1.4977 H         1 <0>         0.1139
     44 H15         3.1202   -2.7392   -1.8474 H         1 <0>         0.0604
     45 H16         1.9124    0.0747   -5.4512 H         1 <0>         0.1451
     46 H17         0.5510    1.2773   -7.1093 H         1 <0>         0.1446
     47 H18        -2.5958   -1.5885   -6.5740 H         1 <0>         0.1415
     48 H19        -1.2139   -2.7804   -4.9251 H         1 <0>         0.1451
     49 H20         2.8229   -1.6482   -5.3453 H         1 <0>         0.4298
@<TRIPOS>BOND
     1    1    2 1
     2    1   33 1
     3    1   34 1
     4    1   35 1
     5    2    3 1
     6    2    4 1
     7    2    5 1
     8    3   36 1
     9    3   37 1
    10    3   38 1
    11    4   39 1
    12    4   40 1
    13    4   41 1
    14    5   16 am
    15    5    6 am
    16    6    7 2
    17    6    8 1
    18    8    9 1
    19    8   14 1
    20    8   10 1
    21   10   11 1
    22   10   12 1
    23   10   25 1
    24   12   13 1
    25   12   42 1
    26   12   49 1
    27   13   14 1
    28   13   18 1
    29   13   22 1
    30   14   15 1
    31   14   16 1
    32   16   17 2
    33   18   19 1
    34   18   43 1
    35   18   44 1
    36   19   20 2
    37   19   21 1
    38   22   23 2
    39   22   24 1
    40   25   30 ar
    41   25   26 ar
    42   26   27 ar
    43   26   45 1
    44   27   28 ar
    45   27   46 1
    46   28   29 ar
    47   28   31 1
    48   29   30 ar
    49   29   47 1
    50   30   48 1
    51   31   32 3
@<TRIPOS>MOLECULE
ZINC38932911
   41    43     0     0     0
SMALL
USER_CHARGES

@<TRIPOS>ATOM
      1 C1         -0.0166    1.3741    0.0096 C.ar      1 <0>        -0.1577
      2 C2          1.1734    2.0848    0.0021 C.ar      1 <0>        -0.0643
      3 C3          2.3849    1.4271   -0.0202 C.ar      1 <0>        -0.1506
      4 C4          2.4267    0.0360   -0.0315 C.ar      1 <0>         0.1767
      5 C5          1.2226   -0.6789   -0.0118 C.ar      1 <0>        -0.2147
      6 C6          0.0021   -0.0041    0.0020 C.ar      1 <0>        -0.0344
      7 C7          1.2529   -2.1623    0.0126 C.2       1 <0>         0.4596
      8 O1          0.2574   -2.8369    0.2033 O.2       1 <0>        -0.4830
      9 C8          2.5962   -2.7596   -0.2148 C.2       1 <0>        -0.4963
     10 C9          2.7874   -3.9991   -0.8019 C.2       1 <0>         0.3503
     11 N1          1.7260   -4.7272   -1.1989 N.pl3     1 <0>        -0.6175
     12 C10         1.9282   -6.0385   -1.8200 C.3       1 <0>         0.0532
     13 H1          2.7879   -6.5284   -1.3628 H         1 <0>         0.0942
     14 C11         0.6805   -6.8993   -1.6121 C.3       1 <0>        -0.0739
     15 C12         0.5018   -7.1778   -0.1419 C.ar      1 <0>        -0.0715
     16 C13         1.0903   -8.2929    0.4254 C.ar      1 <0>        -0.1074
     17 C14         0.9292   -8.5528    1.7736 C.ar      1 <0>        -0.1296
     18 C15         0.1770   -7.6946    2.5596 C.ar      1 <0>         0.0680
     19 C16        -0.4149   -6.5721    1.9887 C.ar      1 <0>         0.0865
     20 C17        -0.2456   -6.3148    0.6377 C.ar      1 <0>        -0.1181
     21 O2         -1.1541   -5.7269    2.7560 O.3       1 <0>        -0.4886
     22 O3          0.0173   -7.9491    3.8859 O.3       1 <0>        -0.4907
     23 C18         2.1767   -5.8623   -3.2959 C.2       1 <0>         0.4861
     24 O4          2.1841   -4.7450   -3.7837 O.co2     1 <0>        -0.6730
     25 O5          2.3703   -6.8371   -4.0022 O.co2     1 <0>        -0.6778
     26 C19         3.7113   -1.8974    0.2495 C.2       1 <0>         0.5669
     27 O6          4.6474   -2.3451    0.8844 O.2       1 <0>        -0.4607
     28 O7          3.6294   -0.5858   -0.0728 O.3       1 <0>        -0.2969
     29 H2         -0.9594    1.9007    0.0259 H         1 <0>         0.1313
     30 H3          1.1513    3.1645    0.0134 H         1 <0>         0.1344
     31 H4          3.3045    1.9933   -0.0293 H         1 <0>         0.1395
     32 H5         -0.9244   -0.5590    0.0071 H         1 <0>         0.1385
     33 H6          3.7875   -4.3820   -0.9416 H         1 <0>         0.1587
     34 H7         -0.1936   -6.3694   -1.9904 H         1 <0>         0.0779
     35 H8          0.7951   -7.8409   -2.1490 H         1 <0>         0.1055
     36 H9          1.6768   -8.9625   -0.1861 H         1 <0>         0.1327
     37 H10         1.3894   -9.4249    2.2141 H         1 <0>         0.1310
     38 H11        -0.7008   -5.4423    0.1929 H         1 <0>         0.1342
     39 H12        -0.6430   -5.0098    3.1556 H         1 <0>         0.3864
     40 H13         0.6960   -7.5503    4.4475 H         1 <0>         0.3833
     41 H14         0.8277   -4.3833   -1.0735 H         1 <0>         0.4118
@<TRIPOS>BOND
     1    1    6 ar
     2    1    2 ar
     3    1   29 1
     4    2    3 ar
     5    2   30 1
     6    3    4 ar
     7    3   31 1
     8    4   28 1
     9    4    5 ar
    10    5    6 ar
    11    5    7 1
    12    6   32 1
    13    7    8 2
    14    7    9 1
    15    9   26 1
    16    9   10 2
    17   10   33 1
    18   10   11 1
    19   11   12 1
    20   11   41 1
    21   12   13 1
    22   12   14 1
    23   12   23 1
    24   14   15 1
    25   14   34 1
    26   14   35 1
    27   15   20 ar
    28   15   16 ar
    29   16   17 ar
    30   16   36 1
    31   17   18 ar
    32   17   37 1
    33   18   19 ar
    34   18   22 1
    35   19   20 ar
    36   19   21 1
    37   20   38 1
    38   21   39 1
    39   22   40 1
    40   23   24 2
    41   23   25 1
    42   26   27 2
    43   26   28 1
@<TRIPOS>MOLECULE
ZINC38786944
   39    41     0     0     0
SMALL
USER_CHARGES

@<TRIPOS>ATOM
      1 C1          0.2868    0.7868   -1.8473 C.3       1 <0>         0.0185
      2 O1          0.2726   -0.5870   -1.4544 O.3       1 <0>        -0.3032
      3 C2         -0.9145   -1.0972   -1.0415 C.ar      1 <0>         0.2582
      4 C3         -2.0472   -0.2674   -1.0271 C.ar      1 <0>        -0.2617
      5 C4         -3.2556   -0.7254   -0.6246 C.ar      1 <0>         0.0576
      6 C5         -3.3938   -2.0720   -0.2054 C.ar      1 <0>        -0.2700
      7 C6         -4.4781   -2.7991    0.2475 C.2       1 <0>         0.2791
      8 C7         -3.9531   -4.1889    0.5309 C.3       1 <0>         0.1490
      9 H1         -4.4663   -4.9189   -0.0950 H         1 <0>         0.1808
     10 N1         -2.5246   -4.1568    0.2015 N.pl3     1 <0>        -0.6339
     11 C8         -2.2077   -2.9478   -0.2185 C.ar      1 <0>         0.3333
     12 C9         -0.9775   -2.4019   -0.6572 C.ar      1 <0>        -0.2464
     13 C10        -4.1439   -4.5288    1.9866 C.2       1 <0>         0.4534
     14 O2         -3.3137   -4.1955    2.7987 O.2       1 <0>        -0.4671
     15 O3         -5.2362   -5.2019    2.3810 O.3       1 <0>        -0.3252
     16 C11        -5.3521   -5.4903    3.7758 C.3       1 <0>         0.0347
     17 N2         -5.7573   -2.3550    0.4065 N.pl3     1 <0>        -0.4501
     18 C12        -6.7333   -3.2195    0.7561 C.2       1 <0>         0.0321
     19 C13        -8.0103   -2.7492    1.0365 C.2       1 <0>        -0.1297
     20 C14        -8.3047   -1.3093    1.1037 C.2       1 <0>         0.4637
     21 N3         -9.5529   -0.9407    1.3776 N.2       1 <0>        -0.6587
     22 C15       -10.5096   -1.8287    1.5853 C.2       1 <0>         0.6140
     23 N4        -10.3255   -3.1369    1.5424 N.2       1 <0>        -0.6738
     24 C16        -9.1354   -3.6667    1.2746 C.2       1 <0>         0.4805
     25 O4         -8.9653   -4.9938    1.2288 O.3       1 <0>        -0.6416
     26 O5        -11.7518   -1.3712    1.8585 O.3       1 <0>        -0.6429
     27 O6         -7.3459   -0.3984    0.8961 O.2       1 <0>        -0.6754
     28 H2          1.2946    1.0665   -2.1543 H         1 <0>         0.1085
     29 H3         -0.4007    0.9336   -2.6803 H         1 <0>         0.0672
     30 H4         -0.0227    1.4083   -1.0070 H         1 <0>         0.0672
     31 H5         -1.9518    0.7605   -1.3444 H         1 <0>         0.1475
     32 H6         -4.1114   -0.0666   -0.6224 H         1 <0>         0.1516
     33 H7         -0.0904   -3.0174   -0.6830 H         1 <0>         0.1526
     34 H8         -4.5038   -6.0968    4.0931 H         1 <0>         0.0665
     35 H9         -5.3632   -4.5577    4.3399 H         1 <0>         0.0686
     36 H10        -6.2777   -6.0363    3.9583 H         1 <0>         0.1211
     37 H11        -5.9661   -1.4179    0.2683 H         1 <0>         0.4449
     38 H12        -6.5215   -4.2767    0.8180 H         1 <0>         0.1825
     39 H13        -1.9117   -4.9045    0.2796 H         1 <0>         0.4465
@<TRIPOS>BOND
     1    1    2 1
     2    1   28 1
     3    1   29 1
     4    1   30 1
     5    2    3 1
     6    3   12 ar
     7    3    4 ar
     8    4    5 ar
     9    4   31 1
    10    5    6 ar
    11    5   32 1
    12    6   11 ar
    13    6    7 2
    14    7    8 1
    15    7   17 1
    16    8    9 1
    17    8   10 1
    18    8   13 1
    19   10   11 2
    20   10   39 1
    21   11   12 ar
    22   12   33 1
    23   13   14 2
    24   13   15 1
    25   15   16 1
    26   16   34 1
    27   16   35 1
    28   16   36 1
    29   17   18 1
    30   17   37 1
    31   18   19 2
    32   18   38 1
    33   19   24 1
    34   19   20 1
    35   20   21 1
    36   20   27 2
    37   21   22 2
    38   22   23 1
    39   22   26 1
    40   23   24 2
    41   24   25 1
@<TRIPOS>MOLECULE
ZINC04705722
   48    51     0     0     0
SMALL
USER_CHARGES
2-[2-amino-6-[(6-methyl-2-pyridyl)methylsulfanyl]purin-9-yl]-5-(hydroxymethyl)tetrahydrofuran-3,4-diol
@<TRIPOS>ATOM
      1 C1         -7.6162   -1.8943   -2.4653 C.3       1 <0>        -0.1063
      2 C2         -6.9090   -1.9558   -1.1360 C.ar      1 <0>         0.1332
      3 C3         -7.6455   -1.9042    0.0326 C.ar      1 <0>        -0.1676
      4 C4         -6.9853   -1.9620    1.2502 C.ar      1 <0>        -0.0690
      5 C5         -5.6032   -2.0752    1.2469 C.ar      1 <0>        -0.1610
      6 C6         -4.9339   -2.1160    0.0387 C.ar      1 <0>         0.1378
      7 N1         -5.5949   -2.0585   -1.1010 N.ar      1 <0>        -0.4716
      8 C7         -3.4315   -2.2337    0.0232 C.3       1 <0>        -0.0681
      9 S1         -2.6967   -0.5796    0.0254 S.3       1 <0>         0.0346
     10 C8         -0.9868   -1.0044    0.0061 C.ar      1 <0>         0.2613
     11 C9          0.0021   -0.0041    0.0020 C.ar      1 <0>        -0.0867
     12 C10         1.3492   -0.3999   -0.0130 C.ar      1 <0>         0.3511
     13 N2          1.6435   -1.6967   -0.0224 N.ar      1 <0>        -0.5698
     14 C11         0.6820   -2.6056   -0.0177 C.ar      1 <0>         0.6043
     15 N3         -0.6035   -2.2768   -0.0036 N.ar      1 <0>        -0.5720
     16 N4          1.0293   -3.9465   -0.0283 N.pl3     1 <0>        -0.8156
     17 N5          2.0844    0.7583   -0.0138 N.pl3     1 <0>        -0.4749
     18 C12         1.2045    1.8010    0.0002 C.2       1 <0>         0.2706
     19 N6         -0.0163    1.3513    0.0095 N.2       1 <0>        -0.4495
     20 C13         3.5460    0.8574   -0.0268 C.3       1 <0>         0.3193
     21 H1          3.9783    0.0595   -0.6305 H         1 <0>         0.1216
     22 C14         4.1087    0.8156    1.4168 C.3       1 <0>         0.0757
     23 H2          3.4561    1.3535    2.1045 H         1 <0>         0.0930
     24 C15         5.4645    1.5491    1.2559 C.3       1 <0>         0.0467
     25 H3          6.2770    0.8297    1.1532 H         1 <0>         0.0969
     26 C16         5.3017    2.3673   -0.0398 C.3       1 <0>         0.0533
     27 H4          6.0212    2.0283   -0.7851 H         1 <0>         0.0965
     28 O1          3.9636    2.1495   -0.5175 O.3       1 <0>        -0.3450
     29 C17         5.5150    3.8544    0.2501 C.3       1 <0>         0.0795
     30 O2          5.4623    4.5906   -0.9736 O.3       1 <0>        -0.5642
     31 O3          5.7021    2.4149    2.3676 O.3       1 <0>        -0.5501
     32 O4          4.3027   -0.5324    1.8497 O.3       1 <0>        -0.5342
     33 H5         -7.8666   -2.9040   -2.7907 H         1 <0>         0.0796
     34 H6         -8.5295   -1.3080   -2.3643 H         1 <0>         0.0767
     35 H7         -6.9638   -1.4263   -3.2026 H         1 <0>         0.0793
     36 H8         -8.7216   -1.8197   -0.0025 H         1 <0>         0.1376
     37 H9         -7.5346   -1.9236    2.1793 H         1 <0>         0.1390
     38 H10        -5.0566   -2.1267    2.1769 H         1 <0>         0.1383
     39 H11        -3.1183   -2.7692   -0.8730 H         1 <0>         0.1155
     40 H12        -3.1007   -2.7794    0.9069 H         1 <0>         0.1126
     41 H13         1.9640   -4.2054   -0.0389 H         1 <0>         0.4162
     42 H14         0.3377   -4.6266   -0.0251 H         1 <0>         0.4167
     43 H15         1.4805    2.8451    0.0029 H         1 <0>         0.2253
     44 H16         4.7333    4.2094    0.9217 H         1 <0>         0.0667
     45 H17         6.4889    3.9973    0.7184 H         1 <0>         0.0627
     46 H18         5.5899    5.5430   -0.8654 H         1 <0>         0.3863
     47 H19         6.5104    2.9403    2.2913 H         1 <0>         0.3869
     48 H20         4.6536   -0.6106    2.7474 H         1 <0>         0.3907
@<TRIPOS>BOND
     1    1    2 1
     2    1   33 1
     3    1   34 1
     4    1   35 1
     5    2    7 ar
     6    2    3 ar
     7    3    4 ar
     8    3   36 1
     9    4    5 ar
    10    4   37 1
    11    5    6 ar
    12    5   38 1
    13    6    7 ar
    14    6    8 1
    15    8    9 1
    16    8   39 1
    17    8   40 1
    18    9   10 1
    19   10   15 ar
    20   10   11 ar
    21   11   19 1
    22   11   12 ar
    23   12   13 ar
    24   12   17 1
    25   13   14 ar
    26   14   15 ar
    27   14   16 1
    28   16   41 1
    29   16   42 1
    30   17   18 1
    31   17   20 1
    32   18   19 2
    33   18   43 1
    34   20   21 1
    35   20   28 1
    36   20   22 1
    37   22   23 1
    38   22   24 1
    39   22   32 1
    40   24   25 1
    41   24   26 1
    42   24   31 1
    43   26   27 1
    44   26   28 1
    45   26   29 1
    46   29   30 1
    47   29   44 1
    48   29   45 1
    49   30   46 1
    50   31   47 1
    51   32   48 1
@<TRIPOS>MOLECULE
ZINC09594195
   46    48     0     0     0
SMALL
USER_CHARGES
4-oxo-3-[(4-sulfamoylphenyl)methylcarbamoylmethyl]phthalazine-1-carboxamide
@<TRIPOS>ATOM
      1 C1          2.3886    1.4027   -0.0132 C.ar      1 <0>        -0.0857
      2 C2          1.1757    2.0789    0.0020 C.ar      1 <0>        -0.1133
      3 C3         -0.0168    1.3871    0.0097 C.ar      1 <0>        -0.0532
      4 C4          0.0021   -0.0041    0.0020 C.ar      1 <0>        -0.1363
      5 C5          1.2371   -0.6928   -0.0135 C.ar      1 <0>        -0.0359
      6 C6          2.4284    0.0244   -0.0210 C.ar      1 <0>        -0.0948
      7 C7          1.1921   -2.1639   -0.0214 C.2       1 <0>         0.0629
      8 N1          0.0289   -2.7685   -0.0140 N.2       1 <0>        -0.1929
      9 N2         -1.0976   -2.1624    0.0000 N.am      1 <0>        -0.3469
     10 C8         -1.2206   -0.8191    0.0088 C.2       1 <0>         0.5250
     11 O1         -2.3190   -0.2943    0.0221 O.2       1 <0>        -0.4961
     12 C9         -2.3195   -2.9705    0.0068 C.3       1 <0>         0.0940
     13 C10        -2.7518   -3.2395   -1.4116 C.2       1 <0>         0.5055
     14 O2         -2.1031   -2.7995   -2.3370 O.2       1 <0>        -0.5198
     15 N3         -3.8594   -3.9690   -1.6516 N.am      1 <0>        -0.7223
     16 C11        -4.2796   -4.2305   -3.0305 C.3       1 <0>         0.1549
     17 C12        -5.5366   -5.0617   -3.0235 C.ar      1 <0>        -0.0522
     18 C13        -5.4528   -6.4415   -3.0378 C.ar      1 <0>        -0.1205
     19 C14        -6.6058   -7.2040   -3.0270 C.ar      1 <0>        -0.0184
     20 C15        -7.8426   -6.5868   -3.0109 C.ar      1 <0>        -0.6680
     21 C16        -7.9264   -5.2070   -3.0019 C.ar      1 <0>        -0.0178
     22 C17        -6.7734   -4.4445   -3.0084 C.ar      1 <0>        -0.1203
     23 S1         -9.3122   -7.5587   -3.0015 S.o2      1 <0>         2.7009
     24 O3         -8.9584   -8.8248   -2.4618 O.2       1 <0>        -0.9606
     25 O4        -10.3321   -6.7473   -2.4352 O.2       1 <0>        -0.9604
     26 N4         -9.7370   -7.8194   -4.5807 N.pl3     1 <0>        -1.2493
     27 C18         2.4421   -2.9494   -0.0381 C.2       1 <0>         0.6031
     28 O5          3.5170   -2.3813   -0.0453 O.2       1 <0>        -0.5239
     29 N5          2.3916   -4.2962   -0.0453 N.am      1 <0>        -0.8321
     30 H1          3.3118    1.9631   -0.0194 H         1 <0>         0.1378
     31 H2          1.1665    3.1589    0.0079 H         1 <0>         0.1377
     32 H3         -0.9563    1.9197    0.0170 H         1 <0>         0.1428
     33 H4          3.3762   -0.4933   -0.0324 H         1 <0>         0.1714
     34 H5         -2.1269   -3.9161    0.5135 H         1 <0>         0.1359
     35 H6         -3.1087   -2.4315    0.5312 H         1 <0>         0.1381
     36 H7         -4.3782   -4.3209   -0.9115 H         1 <0>         0.4064
     37 H8         -4.4723   -3.2848   -3.5372 H         1 <0>         0.0852
     38 H9         -3.4905   -4.7694   -3.5548 H         1 <0>         0.0859
     39 H10        -4.4866   -6.9237   -3.0541 H         1 <0>         0.1384
     40 H11        -6.5403   -8.2820   -3.0337 H         1 <0>         0.1474
     41 H12        -8.8926   -4.7248   -2.9893 H         1 <0>         0.1475
     42 H13        -6.8388   -3.3665   -3.0013 H         1 <0>         0.1385
     43 H14        -9.1946   -7.4516   -5.2959 H         1 <0>         0.4172
     44 H15       -10.5282   -8.3399   -4.7906 H         1 <0>         0.4227
     45 H16         1.5340   -4.7494   -0.0396 H         1 <0>         0.4100
     46 H17         3.2129   -4.8122   -0.0563 H         1 <0>         0.4117
@<TRIPOS>BOND
     1    1    6 ar
     2    1    2 ar
     3    1   30 1
     4    2    3 ar
     5    2   31 1
     6    3    4 ar
     7    3   32 1
     8    4   10 1
     9    4    5 ar
    10    5    6 ar
    11    5    7 1
    12    6   33 1
    13    7    8 2
    14    7   27 1
    15    8    9 1
    16    9   10 am
    17    9   12 1
    18   10   11 2
    19   12   13 1
    20   12   34 1
    21   12   35 1
    22   13   14 2
    23   13   15 am
    24   15   16 1
    25   15   36 1
    26   16   17 1
    27   16   37 1
    28   16   38 1
    29   17   22 ar
    30   17   18 ar
    31   18   19 ar
    32   18   39 1
    33   19   20 ar
    34   19   40 1
    35   20   21 ar
    36   20   23 1
    37   21   22 ar
    38   21   41 1
    39   22   42 1
    40   23   24 2
    41   23   25 2
    42   23   26 1
    43   26   43 1
    44   26   44 1
    45   27   28 2
    46   27   29 am
    47   29   45 1
    48   29   46 1
@<TRIPOS>MOLECULE
ZINC31167087
   44    46     0     0     0
SMALL
USER_CHARGES
8-hydroxy-6-methoxy-7-[(2S,3R,4S,5S,6R)-3,4,5-trihydroxy-6-(hydroxymethyl)tetrahydropyran-2-yl]oxy-chromen-2-one
@<TRIPOS>ATOM
      1 C1         -0.0127    1.0858    0.0080 C.3       1 <0>         0.0206
      2 O1         -0.6816    1.5467    1.1837 O.3       1 <0>        -0.2824
      3 C2         -0.7875    2.8930    1.3463 C.ar      1 <0>         0.1641
      4 C3         -0.2602    3.7432    0.3971 C.ar      1 <0>        -0.1942
      5 C4         -0.3712    5.1284    0.5679 C.ar      1 <0>        -0.0740
      6 C5          0.1786    6.0552   -0.4238 C.2       1 <0>        -0.0095
      7 C6          0.0397    7.3885   -0.2032 C.2       1 <0>        -0.2269
      8 C7         -0.6204    7.8421    0.9572 C.2       1 <0>         0.5023
      9 O2         -0.7386    9.0401    1.1427 O.2       1 <0>        -0.4623
     10 O3         -1.1221    6.9878    1.8621 O.3       1 <0>        -0.2536
     11 C8         -1.0178    5.6496    1.7031 C.ar      1 <0>         0.0724
     12 C9         -1.5442    4.7799    2.6522 C.ar      1 <0>         0.1836
     13 C10        -1.4346    3.4090    2.4709 C.ar      1 <0>         0.0043
     14 O4         -1.9560    2.5620    3.3974 O.3       1 <0>        -0.2776
     15 C11        -1.0993    2.1680    4.4711 C.3       1 <0>         0.2630
     16 H1         -0.6792    3.0836    4.9129 H         1 <0>         0.0664
     17 C12        -1.8909    1.3221    5.4718 C.3       1 <0>         0.1191
     18 H2         -2.3851    0.4725    4.9779 H         1 <0>         0.0855
     19 C13        -0.9521    0.8537    6.5878 C.3       1 <0>         0.1008
     20 H3         -0.5980    1.6973    7.1985 H         1 <0>         0.0743
     21 C14         0.2147    0.0794    5.9669 C.3       1 <0>         0.0639
     22 H4         -0.1242   -0.8618    5.5095 H         1 <0>         0.0778
     23 C15         0.9250    0.9733    4.9471 C.3       1 <0>         0.0691
     24 H5          1.3038    1.8930    5.4168 H         1 <0>         0.0767
     25 O5         -0.0112    1.3988    3.9549 O.3       1 <0>        -0.3683
     26 C16         2.0548    0.1872    4.2789 C.3       1 <0>         0.0971
     27 O6          2.7909    1.0537    3.4132 O.3       1 <0>        -0.5892
     28 O7          1.1351   -0.3003    6.9920 O.3       1 <0>        -0.5906
     29 O8         -1.6657    0.0028    7.4872 O.3       1 <0>        -0.5913
     30 O9         -2.9448    2.1075    6.0326 O.3       1 <0>        -0.5848
     31 O10        -2.1715    5.2732    3.7545 O.3       1 <0>        -0.4804
     32 H6          0.0022   -0.0141    0.0020 H         1 <0>         0.1036
     33 H7          1.0193    1.4665    0.0002 H         1 <0>         0.0598
     34 H8         -0.5447    1.4502   -0.8832 H         1 <0>         0.0579
     35 H9          0.2358    3.3423   -0.4745 H         1 <0>         0.1506
     36 H10         0.6814    5.6886   -1.3065 H         1 <0>         0.1586
     37 H11         0.4334    8.0990   -0.9149 H         1 <0>         0.1680
     38 H12         2.7264   -0.2171    5.0506 H         1 <0>         0.0598
     39 H13         1.6289   -0.6408    3.6932 H         1 <0>         0.0565
     40 H14         3.6468    0.6638    2.8428 H         1 <0>         0.4127
     41 H15         2.0417   -0.8676    6.7346 H         1 <0>         0.4146
     42 H16        -1.1519   -0.4324    8.3570 H         1 <0>         0.4258
     43 H17        -3.6240    1.6656    6.7766 H         1 <0>         0.4285
     44 H18        -2.5876    4.5848    4.5048 H         1 <0>         0.4478
@<TRIPOS>BOND
     1    1    2 1
     2    1   32 1
     3    1   33 1
     4    1   34 1
     5    2    3 1
     6    3   13 ar
     7    3    4 ar
     8    4    5 ar
     9    4   35 1
    10    5   11 ar
    11    5    6 1
    12    6    7 2
    13    6   36 1
    14    7    8 1
    15    7   37 1
    16    8    9 2
    17    8   10 1
    18   10   11 1
    19   11   12 ar
    20   12   13 ar
    21   12   31 1
    22   13   14 1
    23   14   15 1
    24   15   16 1
    25   15   25 1
    26   15   17 1
    27   17   18 1
    28   17   19 1
    29   17   30 1
    30   19   20 1
    31   19   21 1
    32   19   29 1
    33   21   22 1
    34   21   23 1
    35   21   28 1
    36   23   24 1
    37   23   25 1
    38   23   26 1
    39   26   27 1
    40   26   38 1
    41   26   39 1
    42   27   40 1
    43   28   41 1
    44   29   42 1
    45   30   43 1
    46   31   44 1
@<TRIPOS>MOLECULE
ZINC38748399
   42    44     0     0     0
SMALL
USER_CHARGES

@<TRIPOS>ATOM
      1 C1         -0.0184    1.5028    0.0103 C.3       1 <0>        -0.1196
      2 C2          0.0021   -0.0041    0.0020 C.ar      1 <0>        -0.0730
      3 C3          0.0057   -0.6865   -1.2012 C.ar      1 <0>        -0.1225
      4 C4          0.0249   -2.0664   -1.2147 C.ar      1 <0>        -0.0792
      5 C5          0.0405   -2.7723   -0.0132 C.ar      1 <0>        -0.0412
      6 C6          0.0368   -2.0796    1.1960 C.ar      1 <0>        -0.0971
      7 C7          0.0229   -0.6995    1.1976 C.ar      1 <0>        -0.1229
      8 C8          0.0607   -4.2559   -0.0214 C.2       1 <0>         0.0304
      9 C9          0.0714   -5.0303    1.0806 C.2       1 <0>        -0.1768
     10 C10         0.0905   -6.4454    0.5305 C.3       1 <0>         0.0017
     11 H1         -0.7990   -6.9921    0.8437 H         1 <0>         0.1604
     12 N1          0.0874   -6.2388   -0.9272 N.2       1 <0>        -0.0996
     13 N2          0.0650   -5.0250   -1.1416 N.2       1 <0>        -0.1621
     14 C11         1.3576   -7.1800    0.9730 C.3       1 <0>         0.2222
     15 H2          1.4161   -7.2249    2.0605 H         1 <0>         0.0577
     16 N3          2.5681   -6.5292    0.4071 N.3       1 <0>        -0.4681
     17 N4          3.5798   -7.5892    0.3887 N.3       1 <0>        -0.4799
     18 C12         2.8529   -8.8747    0.3688 C.3       1 <0>         0.1697
     19 H3          3.1095   -9.4626    1.2501 H         1 <0>         0.0911
     20 N5          1.4069   -8.5453    0.3861 N.3       1 <0>        -0.2948
     21 N6          0.6627   -9.4907    1.2025 N.3       1 <0>        -0.6586
     22 S1          3.2660   -9.7992   -1.1363 S.3       1 <0>        -0.0885
     23 C13         2.7800   -8.6851   -2.4829 C.3       1 <0>        -0.1170
     24 C14         3.0738   -9.3404   -3.8078 C.2       1 <0>         0.5348
     25 O1          3.5628  -10.4498   -3.8404 O.2       1 <0>        -0.5325
     26 N7          2.7930   -8.6936   -4.9564 N.am      1 <0>        -0.8488
     27 H4          1.0042    1.8801    0.0026 H         1 <0>         0.0736
     28 H5         -0.5455    1.8639   -0.8728 H         1 <0>         0.0692
     29 H6         -0.5286    1.8543    0.9071 H         1 <0>         0.0680
     30 H7         -0.0068   -0.1385   -2.1317 H         1 <0>         0.1276
     31 H8          0.0274   -2.5983   -2.1547 H         1 <0>         0.1353
     32 H9          0.0488   -2.6216    2.1300 H         1 <0>         0.1217
     33 H10         0.0244   -0.1615    2.1341 H         1 <0>         0.1261
     34 H11         0.0677   -4.7177    2.1144 H         1 <0>         0.1686
     35 H12         2.8653   -5.7557    0.9827 H         1 <0>         0.3481
     36 H13         4.1831   -7.5273    1.1951 H         1 <0>         0.3268
     37 H14         0.6961  -10.4172    0.8042 H         1 <0>         0.3744
     38 H15         1.0019   -9.4931    2.1528 H         1 <0>         0.3186
     39 H16         1.7134   -8.4723   -2.4113 H         1 <0>         0.1250
     40 H17         3.3422   -7.7545   -2.4052 H         1 <0>         0.1205
     41 H18         2.4019   -7.8064   -4.9303 H         1 <0>         0.4054
     42 H19         2.9821   -9.1154   -5.8092 H         1 <0>         0.4052
@<TRIPOS>BOND
     1    1    2 1
     2    1   27 1
     3    1   28 1
     4    1   29 1
     5    2    7 ar
     6    2    3 ar
     7    3    4 ar
     8    3   30 1
     9    4    5 ar
    10    4   31 1
    11    5    6 ar
    12    5    8 1
    13    6    7 ar
    14    6   32 1
    15    7   33 1
    16    8   13 1
    17    8    9 2
    18    9   10 1
    19    9   34 1
    20   10   11 1
    21   10   12 1
    22   10   14 1
    23   12   13 2
    24   14   15 1
    25   14   20 1
    26   14   16 1
    27   16   17 1
    28   16   35 1
    29   17   18 1
    30   17   36 1
    31   18   19 1
    32   18   20 1
    33   18   22 1
    34   20   21 1
    35   21   37 1
    36   21   38 1
    37   22   23 1
    38   23   24 1
    39   23   39 1
    40   23   40 1
    41   24   25 2
    42   24   26 am
    43   26   41 1
    44   26   42 1
@<TRIPOS>MOLECULE
ZINC59942384
   38    41     0     0     0
SMALL
USER_CHARGES

@<TRIPOS>ATOM
      1 C1         -0.0168    1.3888    0.0097 C.ar      1 <0>        -0.1541
      2 C2          1.1625    2.1025    0.0023 C.ar      1 <0>        -0.0446
      3 C3          2.3770    1.4336   -0.0130 C.ar      1 <0>        -0.0347
      4 C4          2.4041    0.0307   -0.0208 C.ar      1 <0>         0.0689
      5 C5          1.2061   -0.6848   -0.0136 C.ar      1 <0>        -0.1528
      6 C6          0.0021   -0.0041    0.0020 C.ar      1 <0>         0.2184
      7 N1         -1.2014   -0.7172    0.0102 N.pl3     1 <0>        -0.8729
      8 N2          3.7158   -0.3311   -0.0353 N.2       1 <0>        -0.4648
      9 C7          4.4466    0.7430   -0.0365 C.2       1 <0>         0.2220
     10 O1          3.6679    1.8360   -0.0231 O.3       1 <0>        -0.2026
     11 C8          5.9535    0.7593   -0.0508 C.3       1 <0>         0.1781
     12 H1          6.3249   -0.2279   -0.3257 H         1 <0>         0.1620
     13 C9          6.4727    1.1306    1.3397 C.3       1 <0>         0.1781
     14 H2          6.1995    0.3502    2.0499 H         1 <0>         0.1620
     15 C10         7.9729    1.2671    1.2957 C.2       1 <0>         0.2220
     16 N3          8.8118    0.3951    1.7687 N.2       1 <0>        -0.4648
     17 C11        10.0784    0.8447    1.5562 C.ar      1 <0>         0.0690
     18 C12        11.3444    0.3350    1.8470 C.ar      1 <0>        -0.1528
     19 C13        12.4707    1.0544    1.4903 C.ar      1 <0>         0.2184
     20 C14        12.3441    2.2821    0.8444 C.ar      1 <0>        -0.1542
     21 C15        11.0968    2.7922    0.5538 C.ar      1 <0>        -0.0446
     22 C16         9.9589    2.0819    0.9049 C.ar      1 <0>        -0.0347
     23 O2          8.6332    2.3040    0.7573 O.3       1 <0>        -0.2025
     24 N4         13.7420    0.5474    1.7798 N.pl3     1 <0>        -0.8729
     25 O3          5.8933    2.3711    1.7489 O.3       1 <0>        -0.5269
     26 O4          6.4104    1.7222   -1.0027 O.3       1 <0>        -0.5269
     27 H3         -0.9611    1.9126    0.0260 H         1 <0>         0.1409
     28 H4          1.1405    3.1823    0.0079 H         1 <0>         0.1387
     29 H5          1.2189   -1.7647   -0.0198 H         1 <0>         0.1347
     30 H6         -2.0468   -0.2418    0.0211 H         1 <0>         0.4022
     31 H7         -1.1905   -1.6871    0.0049 H         1 <0>         0.4020
     32 H8         11.4444   -0.6164    2.3483 H         1 <0>         0.1347
     33 H9         13.2285    2.8379    0.5700 H         1 <0>         0.1409
     34 H10        11.0060    3.7448    0.0532 H         1 <0>         0.1387
     35 H11        13.8324   -0.3072    2.2298 H         1 <0>         0.4020
     36 H12        14.5331    1.0503    1.5306 H         1 <0>         0.4022
     37 H13         6.0954    3.1123    1.1616 H         1 <0>         0.3853
     38 H14         6.1170    2.6254   -0.8204 H         1 <0>         0.3853
@<TRIPOS>BOND
     1    1    6 ar
     2    1    2 ar
     3    1   27 1
     4    2    3 ar
     5    2   28 1
     6    3   10 1
     7    3    4 ar
     8    4    5 ar
     9    4    8 1
    10    5    6 ar
    11    5   29 1
    12    6    7 1
    13    7   30 1
    14    7   31 1
    15    8    9 2
    16    9   10 1
    17    9   11 1
    18   11   12 1
    19   11   13 1
    20   11   26 1
    21   13   14 1
    22   13   15 1
    23   13   25 1
    24   15   23 1
    25   15   16 2
    26   16   17 1
    27   17   22 ar
    28   17   18 ar
    29   18   19 ar
    30   18   32 1
    31   19   20 ar
    32   19   24 1
    33   20   21 ar
    34   20   33 1
    35   21   22 ar
    36   21   34 1
    37   22   23 1
    38   24   35 1
    39   24   36 1
    40   25   37 1
    41   26   38 1
@<TRIPOS>MOLECULE
ZINC00851034
   31    32     0     0     0
SMALL
USER_CHARGES
3-(3,5-dioxo-2H-1,2,4-triazin-6-yl)-N-(2-furylmethyl)propanamide
@<TRIPOS>ATOM
      1 C1         -1.2364    2.6838   -7.8367 C.2       1 <0>        -0.2184
      2 C2         -0.3296    2.6193   -6.7539 C.2       1 <0>        -0.1806
      3 C3         -0.5670    1.4593   -6.1155 C.2       1 <0>        -0.0436
      4 O1         -1.5598    0.8188   -6.7541 O.3       1 <0>        -0.1716
      5 C4         -1.9735    1.5594   -7.7953 C.2       1 <0>        -0.0258
      6 C5          0.1619    0.9601   -4.8946 C.3       1 <0>         0.2029
      7 N1         -0.5238    1.4325   -3.6893 N.am      1 <0>        -0.7296
      8 C6         -0.0473    1.1066   -2.4714 C.2       1 <0>         0.5163
      9 O2          0.9491    0.4223   -2.3733 O.2       1 <0>        -0.5334
     10 C7         -0.7527    1.5927   -1.2315 C.3       1 <0>        -0.1352
     11 C8         -0.0127    1.0858    0.0080 C.3       1 <0>        -0.0337
     12 C9         -0.7181    1.5718    1.2479 C.2       1 <0>         0.0775
     13 C10        -0.2088    1.2236    2.5775 C.2       1 <0>         0.5246
     14 O3          0.7898    0.5378    2.6946 O.2       1 <0>        -0.4691
     15 N2         -0.8607    1.6732    3.6698 N.am      1 <0>        -0.6604
     16 H1         -0.5238    1.4432    4.5828 H         1 <0>         0.4439
     17 C11        -1.9645    2.4313    3.5312 C.2       1 <0>         0.6823
     18 O4         -2.5445    2.8314    4.5221 O.2       1 <0>        -0.5334
     19 N3         -2.4352    2.7532    2.3131 N.am      1 <0>        -0.5453
     20 H2         -3.2590    3.3146    2.2350 H         1 <0>         0.4643
     21 N4         -1.7870    2.3126    1.1531 N.2       1 <0>        -0.1748
     22 H3         -1.3211    3.4828   -8.5585 H         1 <0>         0.1518
     23 H4          0.4110    3.3595   -6.4896 H         1 <0>         0.1515
     24 H5         -2.7610    1.2947   -8.4854 H         1 <0>         0.2062
     25 H6          1.1845    1.3373   -4.9023 H         1 <0>         0.1013
     26 H7          0.1767   -0.1298   -4.9006 H         1 <0>         0.0873
     27 H8         -1.3208    1.9799   -3.7677 H         1 <0>         0.4058
     28 H9         -1.7753    1.2154   -1.2238 H         1 <0>         0.1059
     29 H10        -0.7675    2.6825   -1.2255 H         1 <0>         0.1061
     30 H11         0.0021   -0.0041    0.0020 H         1 <0>         0.1136
     31 H12         1.0099    1.4631    0.0003 H         1 <0>         0.1135
@<TRIPOS>BOND
     1    1    5 2
     2    1    2 1
     3    1   22 1
     4    2    3 2
     5    2   23 1
     6    3    4 1
     7    3    6 1
     8    4    5 1
     9    5   24 1
    10    6    7 1
    11    6   25 1
    12    6   26 1
    13    7    8 am
    14    7   27 1
    15    8    9 2
    16    8   10 1
    17   10   11 1
    18   10   28 1
    19   10   29 1
    20   11   12 1
    21   11   30 1
    22   11   31 1
    23   12   21 2
    24   12   13 1
    25   13   14 2
    26   13   15 am
    27   15   16 1
    28   15   17 am
    29   17   18 2
    30   17   19 am
    31   19   20 1
    32   19   21 1
@<TRIPOS>MOLECULE
ZINC31543351
   30    32     0     0     0
SMALL
USER_CHARGES
9-[(2R,3R,4R,5R)-3-fluoro-4-hydroxy-5-(hydroxymethyl)tetrahydrofuran-2-yl]-3H-purin-6-one
@<TRIPOS>ATOM
      1 C1          0.7353    9.0138    3.3059 C.2       1 <0>         0.3893
      2 N1          0.8066    7.8831    2.5809 N.2       1 <0>        -0.5269
      3 C2          0.9186    6.6655    3.1938 C.2       1 <0>         0.2571
      4 C3          0.9472    6.6157    4.5849 C.2       1 <0>        -0.1044
      5 C4          0.8657    7.8811    5.3173 C.2       1 <0>         0.5715
      6 O1          0.8901    7.9008    6.5377 O.2       1 <0>        -0.5015
      7 N2          0.7627    9.0227    4.6099 N.am      1 <0>        -0.6296
      8 N3          1.0553    5.3153    4.9405 N.2       1 <0>        -0.4269
      9 C5          1.0890    4.5799    3.8661 C.2       1 <0>         0.2296
     10 N4          1.0036    5.3774    2.7631 N.pl3     1 <0>        -0.4553
     11 C6          1.0090    4.9294    1.3682 C.3       1 <0>         0.2848
     12 H1          0.2624    5.5509    0.8522 H         1 <0>         0.1296
     13 C7          2.4389    4.9960    0.7875 C.3       1 <0>         0.0743
     14 H2          3.2431    5.0898    1.5321 H         1 <0>         0.1190
     15 C8          2.5304    3.7548   -0.1282 C.3       1 <0>         0.0745
     16 H3          3.3835    3.0921    0.0793 H         1 <0>         0.0993
     17 C9          1.1449    3.0852    0.0077 C.3       1 <0>         0.0507
     18 H4          0.4316    3.3667   -0.7809 H         1 <0>         0.1055
     19 O2          0.6410    3.5353    1.2842 O.3       1 <0>        -0.3449
     20 C10         1.2864    1.5618   -0.0018 C.3       1 <0>         0.0891
     21 O3         -0.0110    0.9628    0.0073 O.3       1 <0>        -0.5948
     22 O4          2.7661    4.1475   -1.4818 O.3       1 <0>        -0.5779
     23 F1          2.6117    6.1679    0.0433 F         1 <0>        -0.1793
     24 H5          0.6520    9.9562    2.7851 H         1 <0>         0.2166
     25 H6          1.1724    3.5032    3.8509 H         1 <0>         0.2262
     26 H7          1.8281    1.2495   -0.9068 H         1 <0>         0.0648
     27 H8          1.8452    1.2399    0.8894 H         1 <0>         0.0578
     28 H9         -0.1111   -0.1326    0.0024 H         1 <0>         0.4189
     29 H10         2.8583    3.3837   -2.2680 H         1 <0>         0.4231
     30 H11         0.7011    9.9763    5.1548 H         1 <0>         0.4597
@<TRIPOS>BOND
     1    1    7 1
     2    1    2 2
     3    1   24 1
     4    2    3 1
     5    3   10 1
     6    3    4 2
     7    4    5 1
     8    4    8 1
     9    5    6 2
    10    5    7 am
    11    7   30 1
    12    8    9 2
    13    9   10 1
    14    9   25 1
    15   10   11 1
    16   11   12 1
    17   11   19 1
    18   11   13 1
    19   13   14 1
    20   13   15 1
    21   13   23 1
    22   15   16 1
    23   15   17 1
    24   15   22 1
    25   17   18 1
    26   17   19 1
    27   17   20 1
    28   20   21 1
    29   20   26 1
    30   20   27 1
    31   21   28 1
    32   22   29 1
@<TRIPOS>MOLECULE
ZINC40818795
   31    33     0     0     0
SMALL
USER_CHARGES

@<TRIPOS>ATOM
      1 C1         -0.0751    1.2693    0.0318 C.ar      1 <0>        -0.2479
      2 C2          1.0496    2.0749    0.0055 C.ar      1 <0>         0.0069
      3 C3          2.3065    1.4609   -0.0329 C.ar      1 <0>        -0.2773
      4 C4          2.3738    0.0570   -0.0431 C.ar      1 <0>         0.4627
      5 N1          1.2650   -0.6660   -0.0167 N.ar      1 <0>        -0.5514
      6 C5          0.0715   -0.1062    0.0197 C.ar      1 <0>         0.1906
      7 N2          3.6044   -0.5722   -0.0813 N.pl3     1 <0>        -0.8259
      8 C6          3.5375    2.2717   -0.0626 C.2       1 <0>         0.5859
      9 O1          4.6239    1.7307    0.0124 O.2       1 <0>        -0.5428
     10 N3          3.4587    3.6127   -0.1730 N.am      1 <0>        -0.7249
     11 C7          4.6819    4.4184   -0.2026 C.3       1 <0>         0.2169
     12 C8          4.3205    5.8758   -0.3305 C.2       1 <0>         0.1188
     13 N4          4.1597    6.5381   -1.4459 N.2       1 <0>        -0.2062
     14 N5          3.8540    7.7628   -1.1980 N.2       1 <0>        -0.2589
     15 C9          3.8023    7.9514    0.1105 C.2       1 <0>         0.3561
     16 N6          4.0957    6.7428    0.6938 N.pl3     1 <0>        -0.4230
     17 C10         4.1139    6.6250    2.0524 C.2       1 <0>         0.1222
     18 C11         3.8363    7.7144    2.8098 C.2       1 <0>        -0.1939
     19 C12         3.5380    8.9325    2.1805 C.2       1 <0>         0.1949
     20 N7          3.5339    9.0208    0.8711 N.2       1 <0>        -0.4299
     21 H1         -1.0600    1.7111    0.0662 H         1 <0>         0.1399
     22 H2          0.9596    3.1511    0.0140 H         1 <0>         0.1313
     23 H3         -0.8076   -0.7331    0.0406 H         1 <0>         0.1638
     24 H4          4.4188   -0.0488   -0.0203 H         1 <0>         0.4248
     25 H5          3.6533   -1.5370   -0.1691 H         1 <0>         0.4018
     26 H6          2.5921    4.0443   -0.2329 H         1 <0>         0.4042
     27 H7          5.2420    4.2625    0.7195 H         1 <0>         0.0933
     28 H8          5.2933    4.1195   -1.0540 H         1 <0>         0.1149
     29 H9          4.3457    5.6782    2.5176 H         1 <0>         0.1835
     30 H10         3.8444    7.6454    3.8876 H         1 <0>         0.1760
     31 H11         3.3159    9.8045    2.7776 H         1 <0>         0.1938
@<TRIPOS>BOND
     1    1    6 ar
     2    1    2 ar
     3    1   21 1
     4    2    3 ar
     5    2   22 1
     6    3    4 ar
     7    3    8 1
     8    4    5 ar
     9    4    7 1
    10    5    6 ar
    11    6   23 1
    12    7   24 1
    13    7   25 1
    14    8    9 2
    15    8   10 am
    16   10   11 1
    17   10   26 1
    18   11   12 1
    19   11   27 1
    20   11   28 1
    21   12   16 1
    22   12   13 2
    23   13   14 1
    24   14   15 2
    25   15   20 1
    26   15   16 1
    27   16   17 1
    28   17   18 2
    29   17   29 1
    30   18   19 1
    31   18   30 1
    32   19   20 2
    33   19   31 1
@<TRIPOS>MOLECULE
ZINC50440139
   32    33     0     0     0
SMALL
USER_CHARGES

@<TRIPOS>ATOM
      1 C1          1.0704    1.2828   -0.3253 C.3       1 <0>        -0.0597
      2 C2          0.4960   -0.0998   -0.1538 C.2       1 <0>         0.2249
      3 N1         -0.6149   -0.5536   -0.7336 N.2       1 <0>        -0.5249
      4 C3         -0.8298   -1.7928   -0.3730 C.2       1 <0>         0.2960
      5 N2          0.1615   -2.1620    0.4622 N.pl3     1 <0>        -0.3430
      6 N3          1.0100   -1.0494    0.5833 N.2       1 <0>        -0.2627
      7 C4          0.3172   -3.4071    1.0809 C.ar      1 <0>         0.2355
      8 C5          0.4368   -4.5562    0.3132 C.ar      1 <0>        -0.1097
      9 C6          0.5904   -5.7847    0.9257 C.ar      1 <0>        -0.0227
     10 C7          0.6257   -5.8785    2.3066 C.ar      1 <0>        -0.0402
     11 C8          0.5080   -4.7452    3.0840 C.ar      1 <0>        -0.0217
     12 C9          0.3587   -3.4980    2.4778 C.ar      1 <0>        -0.0275
     13 C10         0.2387   -2.2785    3.3060 C.2       1 <0>         0.3919
     14 N4         -0.0088   -1.1316    2.7433 N.2       1 <0>        -0.3688
     15 O1         -0.1236    0.0360    3.5362 O.3       1 <0>        -0.4117
     16 N5          0.3897   -2.3572    4.6804 N.pl3     1 <0>        -0.8665
     17 N6          0.7898   -7.2008    2.9514 N.pl3     1 <0>         0.0312
     18 O2          0.8927   -8.1958    2.2725 O.2       1 <0>        -0.1406
     19 O3          0.8209   -7.2857    4.1570 O.3       1 <0>        -0.1475
     20 C11        -1.9838   -2.6560   -0.8138 C.3       1 <0>        -0.0838
     21 H1          1.7575    1.2884   -1.1715 H         1 <0>         0.0842
     22 H2          0.2629    1.9917   -0.5084 H         1 <0>         0.0881
     23 H3          1.6064    1.5684    0.5798 H         1 <0>         0.0817
     24 H4          0.4094   -4.4902   -0.7644 H         1 <0>         0.1641
     25 H5          0.6832   -6.6769    0.3241 H         1 <0>         0.1730
     26 H6          0.5357   -4.8230    4.1608 H         1 <0>         0.1662
     27 H7         -0.3082    0.8388    3.0297 H         1 <0>         0.4022
     28 H8          0.5741   -3.2121    5.0998 H         1 <0>         0.3968
     29 H9          0.3110   -1.5574    5.2235 H         1 <0>         0.4148
     30 H10        -1.6790   -3.2622   -1.6669 H         1 <0>         0.0951
     31 H11        -2.2840   -3.3080    0.0065 H         1 <0>         0.0814
     32 H12        -2.8231   -2.0221   -1.0999 H         1 <0>         0.1037
@<TRIPOS>BOND
     1    1    2 1
     2    1   21 1
     3    1   22 1
     4    1   23 1
     5    2    6 2
     6    2    3 1
     7    3    4 2
     8    4    5 1
     9    4   20 1
    10    5    6 1
    11    5    7 1
    12    7   12 ar
    13    7    8 ar
    14    8    9 ar
    15    8   24 1
    16    9   10 ar
    17    9   25 1
    18   10   11 ar
    19   10   17 1
    20   11   12 ar
    21   11   26 1
    22   12   13 1
    23   13   14 2
    24   13   16 1
    25   14   15 1
    26   15   27 1
    27   16   28 1
    28   16   29 1
    29   17   18 2
    30   17   19 1
    31   20   30 1
    32   20   31 1
    33   20   32 1
@<TRIPOS>MOLECULE
ZINC57848479
   30    31     0     0     0
SMALL
USER_CHARGES

@<TRIPOS>ATOM
      1 C1         -0.0187    1.5258    0.0104 C.3       1 <0>        -0.1455
      2 C2          0.0021   -0.0041    0.0020 C.3       1 <0>         0.1787
      3 C3          0.8145   -0.5200   -1.1691 C.2       1 <0>         0.5482
      4 O1          0.5947   -0.3417   -2.3479 O.2       1 <0>        -0.4536
      5 N1          1.8325   -1.2174   -0.6272 N.am      1 <0>        -0.5580
      6 C4          1.7766   -1.2139    0.7095 C.2       1 <0>         0.7184
      7 O2          2.5860   -1.7761    1.4210 O.2       1 <0>        -0.5350
      8 N2          0.7243   -0.5191    1.1781 N.am      1 <0>        -0.7136
      9 C5          2.8713   -1.8963   -1.4058 C.3       1 <0>         0.1304
     10 C6          4.0198   -0.9501   -1.6436 C.2       1 <0>         0.2606
     11 S1          3.9608    0.5400   -1.0665 S.2       1 <0>        -0.4218
     12 N3          5.0968   -1.3597   -2.3427 N.pl3     1 <0>        -0.7716
     13 C7         -1.4013   -0.5515   -0.0400 C.ar      1 <0>        -0.1535
     14 C8         -2.0956   -0.7947    1.1356 C.ar      1 <0>        -0.0512
     15 C9         -3.3841   -1.2985    1.0487 C.ar      1 <0>        -0.1694
     16 C10        -3.9302   -1.5401   -0.1979 C.ar      1 <0>         0.1078
     17 N4         -3.2403   -1.2973   -1.2950 N.ar      1 <0>        -0.4765
     18 C11        -2.0147   -0.8123   -1.2504 C.ar      1 <0>         0.1136
     19 H1          1.0039    1.9031    0.0027 H         1 <0>         0.0844
     20 H2         -0.5459    1.8868   -0.8726 H         1 <0>         0.0863
     21 H3         -0.5289    1.8773    0.9072 H         1 <0>         0.0819
     22 H4          0.4875   -0.3833    2.1089 H         1 <0>         0.4412
     23 H5          3.2264   -2.7678   -0.8558 H         1 <0>         0.1333
     24 H6          2.4584   -2.2143   -2.3631 H         1 <0>         0.1312
     25 H7          5.1326   -2.2636   -2.6928 H         1 <0>         0.4007
     26 H8          5.8361   -0.7506   -2.4958 H         1 <0>         0.4237
     27 H9         -1.6430   -0.5965    2.0960 H         1 <0>         0.1360
     28 H10        -3.9540   -1.5000    1.9437 H         1 <0>         0.1421
     29 H11        -4.9335   -1.9326   -0.2742 H         1 <0>         0.1614
     30 H12        -1.4825   -0.6211   -2.1706 H         1 <0>         0.1697
@<TRIPOS>BOND
     1    1    2 1
     2    1   19 1
     3    1   20 1
     4    1   21 1
     5    2    8 1
     6    2    3 1
     7    2   13 1
     8    3    4 2
     9    3    5 am
    10    5    6 am
    11    5    9 1
    12    6    7 2
    13    6    8 am
    14    8   22 1
    15    9   10 1
    16    9   23 1
    17    9   24 1
    18   10   11 2
    19   10   12 1
    20   12   25 1
    21   12   26 1
    22   13   18 ar
    23   13   14 ar
    24   14   15 ar
    25   14   27 1
    26   15   16 ar
    27   15   28 1
    28   16   17 ar
    29   16   29 1
    30   17   18 ar
    31   18   30 1
@<TRIPOS>MOLECULE
ZINC05121279
   34    36     0     0     0
SMALL
USER_CHARGES
2-(hydroxymethyl)-5-(2-methylsulfanyl-3,5,7,8-tetrazabicyclo[4.3.0]nona-2,4,8,10-tetraen-7-yl)-tetrahydrofuran-3,4-diol
@<TRIPOS>ATOM
      1 C1          3.1142   -2.7147   -0.0398 C.3       1 <0>        -0.1413
      2 S1          3.7992   -1.0394   -0.0382 S.3       1 <0>        -0.0232
      3 C2          2.3089   -0.0995   -0.0201 C.ar      1 <0>         0.2426
      4 C3          2.3438    1.3093   -0.0133 C.ar      1 <0>        -0.2599
      5 C4          3.3715    2.2766   -0.0181 C.2       1 <0>         0.1000
      6 N1          2.8251    3.4592   -0.0070 N.2       1 <0>        -0.2156
      7 N2          1.4301    3.3341    0.0055 N.pl3     1 <0>        -0.3677
      8 C5          1.1206    2.0066    0.0021 C.ar      1 <0>         0.3641
      9 N3         -0.0158    1.3108    0.0092 N.ar      1 <0>        -0.5437
     10 C6          0.0021   -0.0041    0.0020 C.ar      1 <0>         0.3596
     11 N4          1.1240   -0.7018   -0.0120 N.ar      1 <0>        -0.5567
     12 C7          0.4691    4.4398    0.0197 C.3       1 <0>         0.3342
     13 H1         -0.5212    4.0733   -0.2506 H         1 <0>         0.1500
     14 C8          0.4267    5.0792    1.4212 C.3       1 <0>         0.0781
     15 H2         -0.5903    5.0722    1.8131 H         1 <0>         0.1020
     16 C9          0.9106    6.5343    1.1854 C.3       1 <0>         0.0473
     17 H3          1.5808    6.8558    1.9827 H         1 <0>         0.0917
     18 C10         1.6705    6.4113   -0.1599 C.3       1 <0>         0.0455
     19 H4          2.6793    6.0316    0.0024 H         1 <0>         0.1051
     20 O1          0.8827    5.4588   -0.9059 O.3       1 <0>        -0.3322
     21 C11         1.7105    7.7599   -0.8814 C.3       1 <0>         0.0776
     22 O2          2.4260    7.6215   -2.1106 O.3       1 <0>        -0.5595
     23 O3         -0.1991    7.4265    1.0645 O.3       1 <0>        -0.5480
     24 O4          1.3115    4.3945    2.3103 O.3       1 <0>        -0.5341
     25 H5          2.5093   -2.8608    0.8551 H         1 <0>         0.0935
     26 H6          2.4929   -2.8524   -0.9248 H         1 <0>         0.0936
     27 H7          3.9279   -3.4399   -0.0507 H         1 <0>         0.1064
     28 H8          4.4317    2.0712   -0.0288 H         1 <0>         0.1999
     29 H9         -0.9383   -0.5351    0.0082 H         1 <0>         0.2068
     30 H10         0.6931    8.0914   -1.0886 H         1 <0>         0.0624
     31 H11         2.2108    8.4947   -0.2506 H         1 <0>         0.0643
     32 H12         2.4911    8.4395   -2.6221 H         1 <0>         0.3841
     33 H13         0.0476    8.3312    0.8284 H         1 <0>         0.3856
     34 H14         1.3247    4.7556    3.2073 H         1 <0>         0.3874
@<TRIPOS>BOND
     1    1    2 1
     2    1   25 1
     3    1   26 1
     4    1   27 1
     5    2    3 1
     6    3   11 ar
     7    3    4 ar
     8    4    8 ar
     9    4    5 1
    10    5    6 2
    11    5   28 1
    12    6    7 1
    13    7    8 1
    14    7   12 1
    15    8    9 ar
    16    9   10 ar
    17   10   11 ar
    18   10   29 1
    19   12   13 1
    20   12   20 1
    21   12   14 1
    22   14   15 1
    23   14   16 1
    24   14   24 1
    25   16   17 1
    26   16   18 1
    27   16   23 1
    28   18   19 1
    29   18   20 1
    30   18   21 1
    31   21   22 1
    32   21   30 1
    33   21   31 1
    34   22   32 1
    35   23   33 1
    36   24   34 1
@<TRIPOS>MOLECULE
ZINC32605199
   35    37     0     0     0
SMALL
USER_CHARGES
4-hydroxy-N'-(pyridine-4-carbonyl)quinoline-3-carbohydrazide
@<TRIPOS>ATOM
      1 C1          8.4251    2.0545   -0.0631 C.ar      1 <0>        -0.1462
      2 C2          8.3257    3.4432   -0.0543 C.ar      1 <0>        -0.0531
      3 C3          7.1115    4.0604   -0.0412 C.ar      1 <0>        -0.1622
      4 C4          5.9368    3.2906   -0.0356 C.ar      1 <0>         0.1619
      5 C5          6.0411    1.8788   -0.0445 C.ar      1 <0>        -0.1464
      6 C6          7.3072    1.2753   -0.0584 C.ar      1 <0>        -0.0260
      7 C7          4.8603    1.1027   -0.0326 C.2       1 <0>         0.3654
      8 C8          3.6347    1.7789   -0.0231 C.2       1 <0>        -0.2950
      9 C9          3.6238    3.1832   -0.0154 C.2       1 <0>         0.2190
     10 N1          4.7325    3.8778   -0.0214 N.pl3     1 <0>        -0.5521
     11 C10         2.3687    1.0248   -0.0151 C.2       1 <0>         0.5803
     12 O1          2.3852   -0.1912   -0.0217 O.2       1 <0>        -0.5035
     13 N2          1.1926    1.6828   -0.0003 N.am      1 <0>        -0.5419
     14 N3         -0.0111    0.9658    0.0074 N.am      1 <0>        -0.5194
     15 C11        -1.1873    1.6238    0.0165 C.2       1 <0>         0.5621
     16 O2         -1.2038    2.8388    0.0232 O.2       1 <0>        -0.5407
     17 C12        -2.4601    0.8657    0.0184 C.ar      1 <0>        -0.0794
     18 C13        -2.4637   -0.5324    0.0049 C.ar      1 <0>        -0.1426
     19 C14        -3.6736   -1.1992    0.0115 C.ar      1 <0>         0.1021
     20 N4         -4.8123   -0.5353    0.0206 N.ar      1 <0>        -0.4662
     21 C15        -4.8537    0.7822    0.0288 C.ar      1 <0>         0.1005
     22 C16        -3.6912    1.5285    0.0279 C.ar      1 <0>        -0.1125
     23 O3          4.9125   -0.2488   -0.0346 O.2       1 <0>        -0.5286
     24 H1          9.3998    1.5893   -0.0742 H         1 <0>         0.1360
     25 H2          9.2255    4.0405   -0.0582 H         1 <0>         0.1372
     26 H3          7.0523    5.1388   -0.0348 H         1 <0>         0.1397
     27 H4          7.3956    0.1989   -0.0650 H         1 <0>         0.1474
     28 H5          2.6770    3.7025   -0.0040 H         1 <0>         0.1748
     29 H6          1.1777    2.7827    0.0057 H         1 <0>         0.4442
     30 H7          0.0039   -0.1341    0.0060 H         1 <0>         0.4595
     31 H8         -1.5346   -1.0828   -0.0071 H         1 <0>         0.1408
     32 H9         -3.6867   -2.2791    0.0050 H         1 <0>         0.1662
     33 H10        -5.8095    1.2850    0.0361 H         1 <0>         0.1668
     34 H11        -3.7326    2.6077    0.0339 H         1 <0>         0.1506
     35 H12         4.6557    4.9751   -0.0144 H         1 <0>         0.4610
@<TRIPOS>BOND
     1    1    6 ar
     2    1    2 ar
     3    1   24 1
     4    2    3 ar
     5    2   25 1
     6    3    4 ar
     7    3   26 1
     8    4   10 1
     9    4    5 ar
    10    5    6 ar
    11    5    7 1
    12    6   27 1
    13    7    8 1
    14    7   23 2
    15    8    9 2
    16    8   11 1
    17    9   10 1
    18    9   28 1
    19   10   35 1
    20   11   12 2
    21   11   13 am
    22   13   14 1
    23   13   29 1
    24   14   15 am
    25   14   30 1
    26   15   16 2
    27   15   17 1
    28   17   22 ar
    29   17   18 ar
    30   18   19 ar
    31   18   31 1
    32   19   20 ar
    33   19   32 1
    34   20   21 ar
    35   21   22 ar
    36   21   33 1
    37   22   34 1
@<TRIPOS>MOLECULE
ZINC42192493
   35    37     0     0     0
SMALL
USER_CHARGES

@<TRIPOS>ATOM
      1 C1         -0.0168    1.3887    0.0097 C.ar      1 <0>        -0.1860
      2 C2          1.1510    2.0979    0.0023 C.ar      1 <0>         0.0108
      3 C3          2.3741    1.4258   -0.0129 C.ar      1 <0>        -0.0575
      4 C4          2.3984    0.0223   -0.0206 C.ar      1 <0>         0.0953
      5 C5          1.2081   -0.6872   -0.0131 C.ar      1 <0>        -0.2060
      6 C6          0.0021   -0.0041    0.0020 C.ar      1 <0>         0.2718
      7 N1         -1.2007   -0.7161    0.0101 N.pl3     1 <0>        -0.8581
      8 O1          3.7018   -0.3331   -0.0354 O.3       1 <0>        -0.1674
      9 C7          4.4412    0.7881   -0.0367 C.2       1 <0>        -0.3105
     10 N2          3.6727    1.8348   -0.0235 N.2       1 <0>        -0.3534
     11 S1          6.2026    0.8325   -0.0538 S.o2      1 <0>         2.5360
     12 O2          6.5902   -0.3894   -0.6671 O.2       1 <0>        -0.8944
     13 O3          6.5281    2.0791   -0.6533 O.2       1 <0>        -0.8853
     14 C8          6.6859    0.8349    1.6946 C.3       1 <0>        -0.6255
     15 C9          8.2116    0.8727    1.8019 C.3       1 <0>         0.1643
     16 N3          8.6020    0.8746    3.2140 N.am      1 <0>        -0.6271
     17 C10         8.7932    2.0737    4.0435 C.3       1 <0>         0.0868
     18 C11         9.1920    1.5099    5.4211 C.3       1 <0>         0.0912
     19 N4          9.1831    0.0530    5.2216 N.am      1 <0>        -0.7401
     20 C12         8.8357   -0.2157    3.9561 C.2       1 <0>         0.6977
     21 O4          8.7447   -1.3468    3.5195 O.2       1 <0>        -0.5777
     22 H1         -0.9615    1.9119    0.0260 H         1 <0>         0.1443
     23 H2          1.1276    3.1776    0.0080 H         1 <0>         0.1462
     24 H3          1.2200   -1.7671   -0.0193 H         1 <0>         0.1413
     25 H4         -2.0459   -0.2403    0.0210 H         1 <0>         0.4078
     26 H5         -1.1901   -1.6860    0.0048 H         1 <0>         0.4062
     27 H6          6.2652    1.7118    2.1866 H         1 <0>         0.1471
     28 H7          6.3100   -0.0675    2.1767 H         1 <0>         0.1489
     29 H8          8.6323   -0.0043    1.3099 H         1 <0>         0.1078
     30 H9          8.5876    1.7751    1.3198 H         1 <0>         0.1054
     31 H10         9.5917    2.6955    3.6388 H         1 <0>         0.0900
     32 H11         7.8650    2.6406    4.1162 H         1 <0>         0.0858
     33 H12        10.1885    1.8517    5.7005 H         1 <0>         0.0869
     34 H13         8.4618    1.7969    6.1779 H         1 <0>         0.0849
     35 H14         9.3916   -0.6085    5.8997 H         1 <0>         0.4323
@<TRIPOS>BOND
     1    1    6 ar
     2    1    2 ar
     3    1   22 1
     4    2    3 ar
     5    2   23 1
     6    3   10 1
     7    3    4 ar
     8    4    5 ar
     9    4    8 1
    10    5    6 ar
    11    5   24 1
    12    6    7 1
    13    7   25 1
    14    7   26 1
    15    8    9 1
    16    9   10 2
    17    9   11 1
    18   11   12 2
    19   11   13 2
    20   11   14 1
    21   14   15 1
    22   14   27 1
    23   14   28 1
    24   15   16 1
    25   15   29 1
    26   15   30 1
    27   16   20 am
    28   16   17 1
    29   17   18 1
    30   17   31 1
    31   17   32 1
    32   18   19 1
    33   18   33 1
    34   18   34 1
    35   19   20 am
    36   19   35 1
    37   20   21 2
@<TRIPOS>MOLECULE
ZINC49853326
   34    35     0     0     0
SMALL
USER_CHARGES

@<TRIPOS>ATOM
      1 C1         -0.0188    1.5335    0.0105 C.3       1 <0>        -0.1096
      2 C2          1.4289    2.0809   -0.0004 C.3       1 <0>        -0.5750
      3 S1          2.3583    0.7478   -0.8615 S.o2      1 <0>         2.3787
      4 O1          3.3158    0.1993    0.0338 O.2       1 <0>        -0.9273
      5 O2          2.7814    1.2252   -2.1313 O.2       1 <0>        -0.9285
      6 C3          0.9956   -0.4689   -1.1008 C.3       1 <0>        -0.5867
      7 C4          0.0021   -0.0041    0.0020 C.3       1 <0>        -0.1058
      8 H1          0.3313   -0.3731    0.9734 H         1 <0>         0.1328
      9 C5         -1.3772   -0.5301   -0.3009 C.2       1 <0>         0.5331
     10 O3         -2.2924    0.2424   -0.4925 O.2       1 <0>        -0.5174
     11 N1         -1.5939   -1.8591   -0.3590 N.am      1 <0>        -0.5168
     12 N2         -2.8762   -2.3482   -0.6407 N.am      1 <0>        -0.4909
     13 C6         -3.0928   -3.6771   -0.6988 C.2       1 <0>         0.5096
     14 O4         -2.1772   -4.4501   -0.5071 O.2       1 <0>        -0.5157
     15 C7         -4.4607   -4.1989   -0.9992 C.2       1 <0>         0.5259
     16 O5         -5.3763   -3.4259   -1.1909 O.2       1 <0>        -0.5071
     17 N3         -4.6773   -5.5278   -1.0573 N.am      1 <0>        -0.6669
     18 C8         -6.0182   -6.0392   -1.3518 C.3       1 <0>         0.0687
     19 C9         -6.5260   -7.2142   -0.5137 C.3       1 <0>        -0.1863
     20 C10        -6.1218   -7.4337   -1.9729 C.3       1 <0>        -0.1821
     21 H2         -0.5313    1.8835    0.9065 H         1 <0>         0.1069
     22 H3         -0.5483    1.8930   -0.8718 H         1 <0>         0.1021
     23 H4          1.4848    3.0146   -0.5601 H         1 <0>         0.1485
     24 H5          1.7988    2.2155    1.0160 H         1 <0>         0.1444
     25 H6          0.5543   -0.3764   -2.0932 H         1 <0>         0.1483
     26 H7          1.3394   -1.4869   -0.9179 H         1 <0>         0.1514
     27 H8         -0.8620   -2.4770   -0.2058 H         1 <0>         0.4364
     28 H9         -3.6081   -1.7303   -0.7939 H         1 <0>         0.4469
     29 H10        -3.9454   -6.1457   -0.9041 H         1 <0>         0.4162
     30 H11        -6.7474   -5.2927   -1.6665 H         1 <0>         0.1451
     31 H12        -5.8624   -7.6066    0.2569 H         1 <0>         0.1012
     32 H13        -7.5896   -7.2407   -0.2766 H         1 <0>         0.1084
     33 H14        -6.9194   -7.6047   -2.6958 H         1 <0>         0.1097
     34 H15        -5.1923   -7.9706   -2.1623 H         1 <0>         0.1018
@<TRIPOS>BOND
     1    1    7 1
     2    1    2 1
     3    1   21 1
     4    1   22 1
     5    2    3 1
     6    2   23 1
     7    2   24 1
     8    3    4 2
     9    3    5 2
    10    3    6 1
    11    6    7 1
    12    6   25 1
    13    6   26 1
    14    7    8 1
    15    7    9 1
    16    9   10 2
    17    9   11 am
    18   11   12 1
    19   11   27 1
    20   12   13 am
    21   12   28 1
    22   13   14 2
    23   13   15 1
    24   15   16 2
    25   15   17 am
    26   17   18 1
    27   17   29 1
    28   18   20 1
    29   18   19 1
    30   18   30 1
    31   19   20 1
    32   19   31 1
    33   19   32 1
    34   20   33 1
    35   20   34 1
@<TRIPOS>MOLECULE
ZINC54382009
   33    34     0     0     0
SMALL
USER_CHARGES

@<TRIPOS>ATOM
      1 C1         -0.3247    1.7757   -0.1503 C.3       1 <0>        -0.6494
      2 S1          0.0098   -0.0004    0.0053 S.o2      1 <0>         2.5011
      3 O1          0.9574   -0.2312    1.0388 O.2       1 <0>        -0.9347
      4 O2         -1.2068   -0.7334   -0.0390 O.2       1 <0>        -0.9348
      5 C2          0.8508   -0.4348   -1.4808 C.ar      1 <0>        -0.6591
      6 C3          0.1297   -0.8431   -2.5877 C.ar      1 <0>        -0.0086
      7 C4          0.7866   -1.1846   -3.7539 C.ar      1 <0>        -0.1368
      8 C5          2.1712   -1.1172   -3.8141 C.ar      1 <0>         0.1436
      9 C6          2.8923   -0.7066   -2.7021 C.ar      1 <0>        -0.1322
     10 C7          2.2303   -0.3613   -1.5400 C.ar      1 <0>        -0.0088
     11 O3          2.8198   -1.4530   -4.9601 O.3       1 <0>        -0.2048
     12 C8          2.8115   -0.5613   -5.9807 C.ar      1 <0>         0.3126
     13 C9          3.3723   -0.9037   -7.2198 C.ar      1 <0>         0.1090
     14 N1          3.3593   -0.0223   -8.2144 N.ar      1 <0>        -0.3847
     15 C10         2.8203    1.1687   -8.0330 C.ar      1 <0>         0.0229
     16 C11         2.2674    1.5059   -6.8093 C.ar      1 <0>         0.1149
     17 N2          2.2689    0.6358   -5.8139 N.ar      1 <0>        -0.4837
     18 C12         3.9759   -2.2399   -7.4185 C.2       1 <0>         0.4154
     19 N3          3.9873   -3.1001   -6.4428 N.2       1 <0>        -0.3807
     20 O4          4.5650   -4.3788   -6.6331 O.3       1 <0>        -0.4150
     21 N4          4.5288   -2.5747   -8.6437 N.pl3     1 <0>        -0.8577
     22 H1          0.6168    2.3151   -0.2532 H         1 <0>         0.1323
     23 H2         -0.9432    1.9531   -1.0302 H         1 <0>         0.1322
     24 H3         -0.8489    2.1260    0.7388 H         1 <0>         0.1343
     25 H4         -0.9480   -0.8955   -2.5403 H         1 <0>         0.1499
     26 H5          0.2230   -1.5042   -4.6180 H         1 <0>         0.1364
     27 H6          3.9701   -0.6533   -2.7464 H         1 <0>         0.1415
     28 H7          2.7909   -0.0378   -0.6754 H         1 <0>         0.1516
     29 H8          2.8108    1.8835   -8.8426 H         1 <0>         0.1872
     30 H9          1.8289    2.4828   -6.6686 H         1 <0>         0.1848
     31 H10         4.5264   -4.9480   -5.8523 H         1 <0>         0.4050
     32 H11         4.5203   -1.9333   -9.3712 H         1 <0>         0.4053
     33 H12         4.9246   -3.4507   -8.7740 H         1 <0>         0.4108
@<TRIPOS>BOND
     1    1    2 1
     2    1   22 1
     3    1   23 1
     4    1   24 1
     5    2    3 2
     6    2    4 2
     7    2    5 1
     8    5   10 ar
     9    5    6 ar
    10    6    7 ar
    11    6   25 1
    12    7    8 ar
    13    7   26 1
    14    8    9 ar
    15    8   11 1
    16    9   10 ar
    17    9   27 1
    18   10   28 1
    19   11   12 1
    20   12   17 ar
    21   12   13 ar
    22   13   14 ar
    23   13   18 1
    24   14   15 ar
    25   15   16 ar
    26   15   29 1
    27   16   17 ar
    28   16   30 1
    29   18   19 2
    30   18   21 1
    31   19   20 1
    32   20   31 1
    33   21   32 1
    34   21   33 1
@<TRIPOS>MOLECULE
ZINC04304078
   40    42     0     0     0
SMALL
USER_CHARGES
3-amino-8-(2-hydroxyethyl)-9-methyl-7-oxo-5-(3-pyridyl)-2-oxa-8-azabicyclo[4.4.0]deca-3,9,11-triene-4-carbonitrile
@<TRIPOS>ATOM
      1 C1         -6.9269    0.4481    1.5857 C.3       1 <0>        -0.1291
      2 C2         -5.7561    1.3045    1.1773 C.2       1 <0>         0.1947
      3 C3         -4.6044    0.7164    0.7887 C.2       1 <0>        -0.2328
      4 C4         -3.5054    1.5133    0.4062 C.2       1 <0>         0.2177
      5 C5         -3.6333    2.8859    0.4363 C.2       1 <0>        -0.2662
      6 C6         -4.8475    3.4514    0.8461 C.2       1 <0>         0.5460
      7 O1         -4.9751    4.6655    0.8777 O.2       1 <0>        -0.5092
      8 N1         -5.8737    2.6580    1.2055 N.am      1 <0>        -0.4951
      9 C7         -7.1375    3.2631    1.6334 C.3       1 <0>         0.0860
     10 C8         -7.1095    3.4859    3.1468 C.3       1 <0>         0.0604
     11 O2         -6.1022    4.4472    3.4682 O.3       1 <0>        -0.5542
     12 C9         -2.4873    3.7736    0.0354 C.3       1 <0>         0.1159
     13 H1         -2.4023    4.5966    0.7450 H         1 <0>         0.1011
     14 C10        -1.2045    2.9897    0.0296 C.2       1 <0>        -0.2656
     15 C11        -1.2089    1.6359    0.0167 C.2       1 <0>         0.4335
     16 O3         -2.3523    0.9285    0.0183 O.3       1 <0>        -0.2364
     17 N2         -0.0111    0.9658    0.0074 N.pl3     1 <0>        -0.8282
     18 C12         0.0456    3.6882    0.0338 C.1       1 <0>         0.2720
     19 N3          1.0374    4.2423    0.0370 N.1       1 <0>        -0.4390
     20 C13        -2.7424    4.3269   -1.3430 C.ar      1 <0>        -0.1198
     21 C14        -2.8337    5.6959   -1.5442 C.ar      1 <0>        -0.0549
     22 C15        -3.0647    6.1598   -2.8300 C.ar      1 <0>        -0.1710
     23 C16        -3.2053    5.2485   -3.8597 C.ar      1 <0>         0.0921
     24 N4         -3.1174    3.9530   -3.6305 N.ar      1 <0>        -0.4849
     25 C17        -2.8940    3.4762   -2.4213 C.ar      1 <0>         0.1100
     26 H2         -6.6542   -0.6040    1.5022 H         1 <0>         0.0974
     27 H3         -7.1986    0.6721    2.6173 H         1 <0>         0.0883
     28 H4         -7.7747    0.6566    0.9332 H         1 <0>         0.0910
     29 H5         -4.5252   -0.3605    0.7706 H         1 <0>         0.1608
     30 H6         -7.2720    4.2193    1.1278 H         1 <0>         0.1111
     31 H7         -7.9630    2.5983    1.3792 H         1 <0>         0.1085
     32 H8         -8.0809    3.8531    3.4780 H         1 <0>         0.0655
     33 H9         -6.8866    2.5444    3.6487 H         1 <0>         0.0491
     34 H10        -6.0280    4.6382    4.4133 H         1 <0>         0.3799
     35 H11         0.0021   -0.0041    0.0020 H         1 <0>         0.4125
     36 H12         0.8223    1.4622    0.0021 H         1 <0>         0.4269
     37 H13        -2.7235    6.3845   -0.7195 H         1 <0>         0.1343
     38 H14        -3.1380    7.2197   -3.0240 H         1 <0>         0.1347
     39 H15        -3.3889    5.6016   -4.8637 H         1 <0>         0.1544
     40 H16        -2.8283    2.4086   -2.2722 H         1 <0>         0.1427
@<TRIPOS>BOND
     1    1    2 1
     2    1   26 1
     3    1   27 1
     4    1   28 1
     5    2    8 1
     6    2    3 2
     7    3    4 1
     8    3   29 1
     9    4   16 1
    10    4    5 2
    11    5    6 1
    12    5   12 1
    13    6    7 2
    14    6    8 am
    15    8    9 1
    16    9   10 1
    17    9   30 1
    18    9   31 1
    19   10   11 1
    20   10   32 1
    21   10   33 1
    22   11   34 1
    23   12   13 1
    24   12   14 1
    25   12   20 1
    26   14   15 2
    27   14   18 1
    28   15   16 1
    29   15   17 1
    30   17   35 1
    31   17   36 1
    32   18   19 3
    33   20   25 ar
    34   20   21 ar
    35   21   22 ar
    36   21   37 1
    37   22   23 ar
    38   22   38 1
    39   23   24 ar
    40   23   39 1
    41   24   25 ar
    42   25   40 1
@<TRIPOS>MOLECULE
ZINC22264419
   39    41     0     0     0
SMALL
USER_CHARGES
N'-hydroxy-6-(4-pyrimidin-2-ylpiperazin-1-yl)pyridine-3-carboxamidine
@<TRIPOS>ATOM
      1 C1          9.9756    8.3812    1.0113 C.ar      1 <0>        -0.2596
      2 C2          9.7552    7.4336    1.9986 C.ar      1 <0>         0.1751
      3 N1          8.6376    6.7265    1.9763 N.ar      1 <0>        -0.5312
      4 C3          7.7351    6.9161    1.0249 C.ar      1 <0>         0.4924
      5 N2          7.9176    7.8098    0.0640 N.ar      1 <0>        -0.5508
      6 C4          9.0108    8.5537    0.0313 C.ar      1 <0>         0.1746
      7 N3          6.5767    6.1586    1.0320 N.pl3     1 <0>        -0.4629
      8 C5          5.7074    6.5152   -0.0979 C.3       1 <0>         0.0672
      9 C6          4.4060    5.7145   -0.0094 C.3       1 <0>         0.0644
     10 N4          4.7160    4.2781   -0.0201 N.pl3     1 <0>        -0.4788
     11 C7          5.5854    3.9214    1.1098 C.3       1 <0>         0.0589
     12 C8          6.8867    4.7221    1.0213 C.3       1 <0>         0.0677
     13 C9          3.5549    3.5188   -0.0131 C.ar      1 <0>         0.3288
     14 C10         3.6428    2.1285   -0.0218 C.ar      1 <0>        -0.1868
     15 C11         2.4840    1.3799   -0.0084 C.ar      1 <0>        -0.0061
     16 C12         1.2552    2.0542    0.0011 C.ar      1 <0>        -0.1286
     17 C13         1.2477    3.4476    0.0087 C.ar      1 <0>         0.1586
     18 N5          2.3772    4.1257    0.0015 N.ar      1 <0>        -0.5152
     19 C14        -0.0156    1.2972    0.0092 C.2       1 <0>         0.4192
     20 N6          0.0021   -0.0041    0.0020 N.2       1 <0>        -0.4207
     21 O1         -1.2144   -0.7287    0.0097 O.3       1 <0>        -0.4509
     22 N7         -1.2240    1.9732    0.0186 N.pl3     1 <0>        -0.8933
     23 H1         10.8794    8.9725    1.0060 H         1 <0>         0.1489
     24 H2         10.4870    7.2748    2.7768 H         1 <0>         0.1717
     25 H3          9.1521    9.2834   -0.7523 H         1 <0>         0.1699
     26 H4          5.4805    7.5909   -0.0607 H         1 <0>         0.0996
     27 H5          6.2196    6.2810   -1.0428 H         1 <0>         0.0648
     28 H6          3.8808    5.9703    0.9226 H         1 <0>         0.0648
     29 H7          3.7659    5.9589   -0.8699 H         1 <0>         0.1013
     30 H8          5.0732    4.1555    2.0547 H         1 <0>         0.0644
     31 H9          5.8123    2.8457    1.0725 H         1 <0>         0.1006
     32 H10         7.4124    4.4674    0.0892 H         1 <0>         0.0582
     33 H11         7.5273    4.4788    1.8818 H         1 <0>         0.1081
     34 H12         4.6071    1.6422   -0.0341 H         1 <0>         0.1441
     35 H13         2.5227    0.3006   -0.0100 H         1 <0>         0.1503
     36 H14         0.3064    3.9771    0.0209 H         1 <0>         0.1585
     37 H15        -1.1995   -1.8286    0.0036 H         1 <0>         0.4313
     38 H16        -2.1691    1.4103    0.0246 H         1 <0>         0.4313
     39 H17        -1.2389    3.0731    0.0200 H         1 <0>         0.4102
@<TRIPOS>BOND
     1    1    6 ar
     2    1    2 ar
     3    1   23 1
     4    2    3 ar
     5    2   24 1
     6    3    4 ar
     7    4    5 ar
     8    4    7 1
     9    5    6 ar
    10    6   25 1
    11    7   12 1
    12    7    8 1
    13    8    9 1
    14    8   26 1
    15    8   27 1
    16    9   10 1
    17    9   28 1
    18    9   29 1
    19   10   11 1
    20   10   13 1
    21   11   12 1
    22   11   30 1
    23   11   31 1
    24   12   32 1
    25   12   33 1
    26   13   18 ar
    27   13   14 ar
    28   14   15 ar
    29   14   34 1
    30   15   16 ar
    31   15   35 1
    32   16   17 ar
    33   16   19 1
    34   17   18 ar
    35   17   36 1
    36   19   20 2
    37   19   22 1
    38   20   21 1
    39   21   37 1
    40   22   38 1
    41   22   39 1
@<TRIPOS>MOLECULE
ZINC40380812
   32    33     0     0     0
SMALL
USER_CHARGES

@<TRIPOS>ATOM
      1 C1         -0.0179    1.4654    0.0101 C.3       1 <0>         0.0955
      2 C2          1.4286    1.9752   -0.0010 C.3       1 <0>         0.1023
      3 N1          2.1826    1.2713    1.0459 N.pl3     1 <0>        -1.0045
      4 C3          2.2026   -0.1981    1.0378 C.3       1 <0>         0.1034
      5 C4          0.7561   -0.7080    1.0488 C.3       1 <0>         0.0819
      6 N2          0.0021   -0.0041    0.0020 N.am      1 <0>        -0.6035
      7 C5         -0.6597   -0.6938   -0.9481 C.2       1 <0>         0.5121
      8 O1         -1.2789   -0.1020   -1.8067 O.2       1 <0>        -0.5126
      9 C6         -0.6302   -2.2005   -0.9437 C.3       1 <0>         0.1132
     10 H1         -0.7195   -2.5559    0.0829 H         1 <0>         0.1210
     11 C7          0.7211   -2.6839   -1.5327 C.3       1 <0>        -0.0795
     12 S1          0.1309   -4.2088   -2.3832 S.3       1 <0>        -0.1899
     13 C8         -1.5955   -3.7742   -2.5152 C.2       1 <0>         0.5708
     14 O2         -2.4475   -4.3288   -3.1827 O.2       1 <0>        -0.4564
     15 N3         -1.7512   -2.7002   -1.7189 N.am      1 <0>        -0.7177
     16 S2          2.9957    2.1189    2.2133 S.o2      1 <0>         2.7930
     17 O3          4.0252    1.2646    2.6925 O.2       1 <0>        -0.9753
     18 O4          3.2637    3.4041    1.6697 O.2       1 <0>        -0.9735
     19 N4          1.9456    2.3474    3.4732 N.pl3     1 <0>        -1.2596
     20 H2         -0.5237    1.8195    0.9084 H         1 <0>         0.0791
     21 H3         -0.5407    1.8291   -0.8745 H         1 <0>         0.1110
     22 H4          1.8793    1.7759   -0.9732 H         1 <0>         0.0852
     23 H5          1.4403    3.0469    0.1976 H         1 <0>         0.1091
     24 H6          2.7084   -0.5522    0.1395 H         1 <0>         0.0854
     25 H7          2.7254   -0.5618    1.9224 H         1 <0>         0.1112
     26 H8          0.7444   -1.7796    0.8502 H         1 <0>         0.1005
     27 H9          0.3054   -0.5086    2.0211 H         1 <0>         0.0868
     28 H10         1.1288   -1.9632   -2.2416 H         1 <0>         0.1189
     29 H11         1.4393   -2.9171   -0.7466 H         1 <0>         0.1411
     30 H12        -2.6142   -2.2610   -1.6624 H         1 <0>         0.4150
     31 H13         2.2832    2.4123    4.3803 H         1 <0>         0.4221
     32 H14         0.9930    2.4165    3.3042 H         1 <0>         0.4139
@<TRIPOS>BOND
     1    1    6 1
     2    1    2 1
     3    1   20 1
     4    1   21 1
     5    2    3 1
     6    2   22 1
     7    2   23 1
     8    3    4 1
     9    3   16 1
    10    4    5 1
    11    4   24 1
    12    4   25 1
    13    5    6 1
    14    5   26 1
    15    5   27 1
    16    6    7 am
    17    7    8 2
    18    7    9 1
    19    9   10 1
    20    9   15 1
    21    9   11 1
    22   11   12 1
    23   11   28 1
    24   11   29 1
    25   12   13 1
    26   13   14 2
    27   13   15 am
    28   15   30 1
    29   16   17 2
    30   16   18 2
    31   16   19 1
    32   19   31 1
    33   19   32 1
@<TRIPOS>MOLECULE
ZINC44891412
   42    43     0     0     0
SMALL
USER_CHARGES

@<TRIPOS>ATOM
      1 C1          0.0807   -1.8988   -0.7038 C.3       1 <0>        -0.1014
      2 C2         -0.5084   -2.7663   -1.7862 C.2       1 <0>         0.1198
      3 C3         -0.7458   -2.3947   -3.0654 C.2       1 <0>        -0.2696
      4 C4         -1.2944   -3.4919   -3.7375 C.2       1 <0>         0.0991
      5 N1         -1.3831   -4.4864   -2.8920 N.2       1 <0>        -0.2911
      6 N2         -0.8881   -4.0546   -1.6548 N.pl3     1 <0>        -0.4715
      7 H1         -0.8304   -4.5868   -0.8459 H         1 <0>         0.4411
      8 C5         -1.7120   -3.5228   -5.1851 C.3       1 <0>        -0.0796
      9 C6         -0.4687   -1.0383   -3.6607 C.3       1 <0>         0.2008
     10 N3          0.8893   -1.0142   -4.2097 N.am      1 <0>        -0.6929
     11 C7          1.3591    0.1044   -4.7967 C.2       1 <0>         0.5093
     12 O1          0.6572    1.0917   -4.8704 O.2       1 <0>        -0.5188
     13 C8          2.7434    0.1290   -5.3563 C.2       1 <0>         0.5065
     14 O2          3.4456   -0.8586   -5.2825 O.2       1 <0>        -0.5025
     15 N4          3.2132    1.2476   -5.9432 N.am      1 <0>        -0.6172
     16 C9          4.5432    1.2996   -6.3924 C.2       1 <0>        -0.0234
     17 C10         5.6912    1.1792   -5.5943 C.2       1 <0>         0.0963
     18 N5          6.7404    1.2788   -6.3694 N.2       1 <0>        -0.2868
     19 N6          6.3003    1.4658   -7.6858 N.pl3     1 <0>        -0.3668
     20 C11         4.9481    1.4696   -7.6780 C.2       1 <0>         0.0930
     21 C12         4.0520    1.6362   -8.8782 C.3       1 <0>        -0.0945
     22 C13         7.1550    1.6241   -8.8650 C.3       1 <0>         0.1019
     23 C14         5.7118    0.9710   -4.1018 C.3       1 <0>        -0.0700
     24 H2          1.1663   -1.9955   -0.7112 H         1 <0>         0.0865
     25 H3         -0.1927   -0.8589   -0.8825 H         1 <0>         0.0902
     26 H4         -0.3056   -2.2146    0.2654 H         1 <0>         0.0759
     27 H5         -0.8693   -3.8394   -5.7997 H         1 <0>         0.0802
     28 H6         -2.5368   -4.2243   -5.3105 H         1 <0>         0.0765
     29 H7         -2.0320   -2.5272   -5.4923 H         1 <0>         0.0797
     30 H8         -1.1859   -0.8374   -4.4566 H         1 <0>         0.0827
     31 H9         -0.5614   -0.2761   -2.8871 H         1 <0>         0.0800
     32 H10         1.4504   -1.8032   -4.1508 H         1 <0>         0.4134
     33 H11         2.6330    2.0168   -6.0554 H         1 <0>         0.4176
     34 H12         3.8424    2.6949   -9.0309 H         1 <0>         0.0854
     35 H13         4.5484    1.2331   -9.7610 H         1 <0>         0.0765
     36 H14         3.1173    1.1011   -8.7109 H         1 <0>         0.0858
     37 H15         7.3591    0.6456   -9.2998 H         1 <0>         0.0778
     38 H16         6.6482    2.2496   -9.5998 H         1 <0>         0.0894
     39 H17         8.0937    2.0948   -8.5728 H         1 <0>         0.0934
     40 H18         5.9624   -0.0671   -3.8832 H         1 <0>         0.0812
     41 H19         6.4581    1.6270   -3.6537 H         1 <0>         0.0765
     42 H20         4.7299    1.2023   -3.6891 H         1 <0>         0.0695
@<TRIPOS>BOND
     1    1    2 1
     2    1   24 1
     3    1   25 1
     4    1   26 1
     5    2    6 1
     6    2    3 2
     7    3    4 1
     8    3    9 1
     9    4    5 2
    10    4    8 1
    11    5    6 1
    12    6    7 1
    13    8   27 1
    14    8   28 1
    15    8   29 1
    16    9   10 1
    17    9   30 1
    18    9   31 1
    19   10   11 am
    20   10   32 1
    21   11   12 2
    22   11   13 1
    23   13   14 2
    24   13   15 am
    25   15   16 1
    26   15   33 1
    27   16   20 2
    28   16   17 1
    29   17   18 2
    30   17   23 1
    31   18   19 1
    32   19   20 1
    33   19   22 1
    34   20   21 1
    35   21   34 1
    36   21   35 1
    37   21   36 1
    38   22   37 1
    39   22   38 1
    40   22   39 1
    41   23   40 1
    42   23   41 1
    43   23   42 1
@<TRIPOS>MOLECULE
ZINC44932595
   41    43     0     0     0
SMALL
USER_CHARGES

@<TRIPOS>ATOM
      1 C1         -0.0189    1.5451    0.0105 C.3       1 <0>        -0.1223
      2 C2          1.4830    1.9113   -0.0018 C.3       1 <0>        -0.1290
      3 C3          2.1949    0.6702   -0.5712 C.3       1 <0>         0.0478
      4 H1          2.8804    0.2620    0.1715 H         1 <0>         0.0783
      5 N1          1.1466   -0.3235   -0.8892 N.3       1 <0>        -0.4839
      6 C4          0.0021   -0.0041    0.0020 C.3       1 <0>         0.0345
      7 C5          1.6295   -1.6912   -0.6561 C.3       1 <0>         0.0678
      8 C6          2.8415   -1.9658   -1.5511 C.3       1 <0>        -0.1468
      9 C7          3.2902   -3.4164   -1.3618 C.3       1 <0>        -0.0045
     10 N2          2.1950   -4.3228   -1.7271 N.4       1 <0>        -0.5047
     11 C8          1.0548   -4.1146   -0.8265 C.3       1 <0>        -0.0025
     12 C9          0.5200   -2.6908   -0.9952 C.3       1 <0>        -0.1415
     13 C10         2.9526    1.0407   -1.8200 C.2       1 <0>         0.5170
     14 O1          2.6682    0.5212   -2.8784 O.2       1 <0>        -0.5343
     15 N3          3.9463    1.9492   -1.7607 N.am      1 <0>        -0.7105
     16 C11         4.6829    2.3094   -2.9748 C.3       1 <0>         0.2441
     17 C12         5.7326    3.3372   -2.6391 C.2       1 <0>         0.0198
     18 N4          5.5818    4.6536   -2.6512 N.2       1 <0>        -0.3698
     19 N5          6.7077    5.1781   -2.3050 N.2       1 <0>        -0.1869
     20 N6          7.5563    4.2369   -2.0770 N.2       1 <0>        -0.1883
     21 N7          6.9825    3.0984   -2.2694 N.2       1 <0>        -0.3745
     22 H2         -0.4998    1.9194    0.9143 H         1 <0>         0.0805
     23 H3         -0.5169    1.9290   -0.8798 H         1 <0>         0.0815
     24 H4          1.6566    2.7748   -0.6440 H         1 <0>         0.0865
     25 H5          1.8309    2.1158    1.0107 H         1 <0>         0.0814
     26 H6          0.1761   -0.3920    1.0057 H         1 <0>         0.0496
     27 H7         -0.9271   -0.3992   -0.4085 H         1 <0>         0.0893
     28 H8          1.9144   -1.8038    0.3899 H         1 <0>         0.0564
     29 H9          2.5686   -1.8023   -2.5936 H         1 <0>         0.1151
     30 H10         3.6555   -1.2944   -1.2776 H         1 <0>         0.1058
     31 H11         4.1531   -3.6152   -1.9974 H         1 <0>         0.1359
     32 H12         3.5631   -3.5787   -0.3191 H         1 <0>         0.1268
     33 H13         1.9098   -4.1383   -2.6773 H         1 <0>         0.4304
     34 H14         0.2673   -4.8288   -1.0670 H         1 <0>         0.1337
     35 H15         1.3753   -4.2620    0.2048 H         1 <0>         0.1275
     36 H16        -0.3253   -2.5376   -0.3244 H         1 <0>         0.1094
     37 H17         0.1990   -2.5423   -2.0262 H         1 <0>         0.1013
     38 H18         4.1738    2.3647   -0.9142 H         1 <0>         0.4014
     39 H19         5.1625    1.4211   -3.3857 H         1 <0>         0.0731
     40 H20         3.9921    2.7223   -3.7099 H         1 <0>         0.0760
     41 H21         2.5112   -5.2780   -1.6525 H         1 <0>         0.4290
@<TRIPOS>BOND
     1    1    6 1
     2    1    2 1
     3    1   22 1
     4    1   23 1
     5    2    3 1
     6    2   24 1
     7    2   25 1
     8    3    4 1
     9    3    5 1
    10    3   13 1
    11    5    6 1
    12    5    7 1
    13    6   26 1
    14    6   27 1
    15    7   12 1
    16    7    8 1
    17    7   28 1
    18    8    9 1
    19    8   29 1
    20    8   30 1
    21    9   10 1
    22    9   31 1
    23    9   32 1
    24   10   11 1
    25   10   33 1
    26   10   41 1
    27   11   12 1
    28   11   34 1
    29   11   35 1
    30   12   36 1
    31   12   37 1
    32   13   14 2
    33   13   15 am
    34   15   16 1
    35   15   38 1
    36   16   17 1
    37   16   39 1
    38   16   40 1
    39   17   21 2
    40   17   18 1
    41   18   19 1
    42   19   20 2
    43   20   21 1
@<TRIPOS>MOLECULE
ZINC03844920
   36    38     0     0     0
SMALL
USER_CHARGES
5-[[3-[(2,4,6-trioxohexahydropyrimidin-5-ylidene)methyl]phenyl]methylene]hexahydropyrimidine-2,4,6-trione
@<TRIPOS>ATOM
      1 C1         -0.1382    3.6817   -0.3212 C.ar      1 <0>        -0.1414
      2 C2          0.8246    3.0852    0.4678 C.ar      1 <0>        -0.0434
      3 C3          0.8513    1.6903    0.6153 C.ar      1 <0>        -0.1283
      4 C4         -0.1009    0.9043   -0.0397 C.ar      1 <0>         0.0576
      5 C5         -1.0687    1.5169   -0.8406 C.ar      1 <0>        -0.1275
      6 C6         -1.0824    2.9137   -0.9722 C.ar      1 <0>        -0.0433
      7 C7         -2.0697    0.7026   -1.5373 C.2       1 <0>         0.1408
      8 C8         -1.6782   -0.4119   -2.2484 C.2       1 <0>        -0.2896
      9 C9         -0.2541   -0.6857   -2.5321 C.2       1 <0>         0.5657
     10 O1          0.6169    0.0693   -2.1442 O.2       1 <0>        -0.4712
     11 N1          0.0532   -1.7990   -3.2292 N.am      1 <0>        -0.6621
     12 C10        -0.8967   -2.6365   -3.6677 C.2       1 <0>         0.7156
     13 O2         -0.5516   -3.6189   -4.2944 O.2       1 <0>        -0.5228
     14 N2         -2.2064   -2.4498   -3.4533 N.am      1 <0>        -0.6623
     15 C11        -2.6643   -1.3830   -2.7663 C.2       1 <0>         0.5724
     16 O3         -3.8554   -1.2246   -2.5787 O.2       1 <0>        -0.4785
     17 C12         1.8755    1.0588    1.4536 C.2       1 <0>         0.1407
     18 C13         1.5179    0.0884    2.3654 C.2       1 <0>        -0.2898
     19 C14         0.1015   -0.1876    2.6837 C.2       1 <0>         0.5658
     20 O4         -0.7930    0.4378    2.1472 O.2       1 <0>        -0.4714
     21 N3         -0.1718   -1.1559    3.5823 N.am      1 <0>        -0.6620
     22 C15         0.8041   -1.8488    4.1854 C.2       1 <0>         0.7155
     23 O5          0.4889   -2.7042    4.9891 O.2       1 <0>        -0.5227
     24 N4          2.1085   -1.6497    3.9511 N.am      1 <0>        -0.6623
     25 C16         2.5340   -0.7183    3.0728 C.2       1 <0>         0.5724
     26 O6          3.7207   -0.5470    2.8693 O.2       1 <0>        -0.4784
     27 H1         -0.1526    4.7561   -0.4301 H         1 <0>         0.1368
     28 H2          1.5593    3.6942    0.9733 H         1 <0>         0.1349
     29 H3         -0.0862   -0.1702    0.0690 H         1 <0>         0.1169
     30 H4         -1.8317    3.3891   -1.5877 H         1 <0>         0.1348
     31 H5         -3.1136    0.9759   -1.4934 H         1 <0>         0.1660
     32 H6          0.9835   -1.9959   -3.4211 H         1 <0>         0.4382
     33 H7         -2.8400   -3.0973   -3.8000 H         1 <0>         0.4393
     34 H8          2.9099    1.3539    1.3569 H         1 <0>         0.1661
     35 H9         -1.0963   -1.3525    3.8002 H         1 <0>         0.4382
     36 H10         2.7622   -2.1883    4.4239 H         1 <0>         0.4393
@<TRIPOS>BOND
     1    1    6 ar
     2    1    2 ar
     3    1   27 1
     4    2    3 ar
     5    2   28 1
     6    3    4 ar
     7    3   17 1
     8    4    5 ar
     9    4   29 1
    10    5    6 ar
    11    5    7 1
    12    6   30 1
    13    7    8 2
    14    7   31 1
    15    8   15 1
    16    8    9 1
    17    9   10 2
    18    9   11 am
    19   11   12 am
    20   11   32 1
    21   12   13 2
    22   12   14 am
    23   14   15 am
    24   14   33 1
    25   15   16 2
    26   17   18 2
    27   17   34 1
    28   18   25 1
    29   18   19 1
    30   19   20 2
    31   19   21 am
    32   21   22 am
    33   21   35 1
    34   22   23 2
    35   22   24 am
    36   24   25 am
    37   24   36 1
    38   25   26 2
@<TRIPOS>MOLECULE
ZINC10329109
   42    44     0     0     0
SMALL
USER_CHARGES
2-(ethyl-dimethyl-dioxo-BLAHyl)acetohydrazide
@<TRIPOS>ATOM
      1 C1          4.0216   -1.0339   -1.4837 C.3       1 <0>        -0.1665
      2 C2          3.5998   -0.7754   -0.0359 C.3       1 <0>         0.1110
      3 N1          2.3500   -0.0112   -0.0204 N.am      1 <0>        -0.5480
      4 C3          2.3961    1.3365   -0.0134 C.2       1 <0>         0.5967
      5 O1          3.4689    1.9146   -0.0201 O.2       1 <0>        -0.5157
      6 C4          1.1951    2.0696    0.0018 C.2       1 <0>        -0.1487
      7 C5         -0.0167    1.3809    0.0096 C.2       1 <0>         0.3471
      8 N2         -0.9999    2.2865    0.0186 N.2       1 <0>        -0.5094
      9 C6         -0.4926    3.4919    0.0235 C.2       1 <0>         0.5197
     10 N3          0.8734    3.4101    0.0129 N.pl3     1 <0>        -0.4475
     11 C7          1.7428    4.5849    0.0173 C.3       1 <0>         0.1232
     12 C8          0.9262    5.8176   -0.2585 C.2       1 <0>         0.1009
     13 N4         -0.3428    5.8491   -0.2435 N.2       1 <0>        -0.2197
     14 N5         -1.1301    4.7180    0.0281 N.pl3     1 <0>        -0.4143
     15 C9         -2.5643    4.8331    0.3038 C.3       1 <0>         0.1560
     16 C10        -2.7784    5.0123    1.7847 C.2       1 <0>         0.4928
     17 O2         -1.8266    5.0410    2.5359 O.2       1 <0>        -0.5150
     18 N6         -4.0275    5.1406    2.2744 N.am      1 <0>        -0.5750
     19 N7         -4.2215    5.3030    3.6167 N.3       1 <0>        -0.6021
     20 C11         1.6606    7.0956   -0.5719 C.3       1 <0>        -0.0945
     21 N8          0.0021   -0.0041    0.0020 N.am      1 <0>        -0.5085
     22 C12         1.1752   -0.6643   -0.0131 C.2       1 <0>         0.7085
     23 O3          1.1720   -1.8803   -0.0198 O.2       1 <0>        -0.5303
     24 C13        -1.2575   -0.7521    0.0099 C.3       1 <0>         0.0884
     25 H1          4.1712   -0.0824   -1.9939 H         1 <0>         0.0605
     26 H2          4.9515   -1.6025   -1.4951 H         1 <0>         0.0796
     27 H3          3.2427   -1.6010   -1.9933 H         1 <0>         0.0622
     28 H4          4.3787   -0.2083    0.4738 H         1 <0>         0.1019
     29 H5          3.4502   -1.7269    0.4744 H         1 <0>         0.1030
     30 H6          2.2225    4.6778    0.9917 H         1 <0>         0.1150
     31 H7          2.5054    4.4751   -0.7537 H         1 <0>         0.1205
     32 H8         -2.9687    5.6941   -0.2285 H         1 <0>         0.1294
     33 H9         -3.0722    3.9283   -0.0299 H         1 <0>         0.1327
     34 H10        -4.7887    5.1176    1.6736 H         1 <0>         0.4032
     35 H11        -3.7076    6.0994    3.9627 H         1 <0>         0.3477
     36 H12        -5.2037    5.3848    3.8328 H         1 <0>         0.3601
     37 H13         1.8204    7.1684   -1.6477 H         1 <0>         0.0922
     38 H14         1.0694    7.9467   -0.2340 H         1 <0>         0.0903
     39 H15         2.6234    7.0961   -0.0608 H         1 <0>         0.0921
     40 H16        -1.5797   -0.9321   -1.0157 H         1 <0>         0.0741
     41 H17        -1.1107   -1.7056    0.5173 H         1 <0>         0.0948
     42 H18        -2.0194   -0.1752    0.5341 H         1 <0>         0.0916
@<TRIPOS>BOND
     1    1    2 1
     2    1   25 1
     3    1   26 1
     4    1   27 1
     5    2    3 1
     6    2   28 1
     7    2   29 1
     8    3   22 am
     9    3    4 am
    10    4    5 2
    11    4    6 1
    12    6   10 1
    13    6    7 2
    14    7    8 1
    15    7   21 1
    16    8    9 2
    17    9   14 1
    18    9   10 1
    19   10   11 1
    20   11   12 1
    21   11   30 1
    22   11   31 1
    23   12   13 2
    24   12   20 1
    25   13   14 1
    26   14   15 1
    27   15   16 1
    28   15   32 1
    29   15   33 1
    30   16   17 2
    31   16   18 am
    32   18   19 1
    33   18   34 1
    34   19   35 1
    35   19   36 1
    36   20   37 1
    37   20   38 1
    38   20   39 1
    39   21   22 am
    40   21   24 1
    41   22   23 2
    42   24   40 1
    43   24   41 1
    44   24   42 1
@<TRIPOS>MOLECULE
ZINC22520370
   35    36     0     0     0
SMALL
USER_CHARGES
[2-oxo-2-(2-oxoimidazolidin-1-yl)ethyl] 2-fluoro-5-sulfamoyl-benzoate
@<TRIPOS>ATOM
      1 C1          1.2071   -0.6815   -0.0136 C.ar      1 <0>         0.0515
      2 C2          0.0021   -0.0041    0.0020 C.ar      1 <0>        -0.1833
      3 C3         -0.0167    1.3785    0.0096 C.ar      1 <0>         0.2241
      4 C4          1.1882    2.0898    0.0019 C.ar      1 <0>        -0.1819
      5 C5          2.4003    1.3958   -0.0134 C.ar      1 <0>         0.0629
      6 C6          2.4022    0.0170   -0.0212 C.ar      1 <0>        -0.6932
      7 S1          3.9310   -0.8588   -0.0405 S.o2      1 <0>         2.6397
      8 O1          4.9077    0.0170    0.5057 O.2       1 <0>        -0.9755
      9 O2          3.6696   -2.1442    0.5059 O.2       1 <0>        -0.9453
     10 N1          4.3407   -1.0937   -1.6278 N.pl3     1 <0>        -1.1617
     11 C7          1.1785    3.5654    0.0095 C.2       1 <0>         0.5127
     12 O3          0.1224    4.1658    0.0224 O.2       1 <0>        -0.4782
     13 O4          2.3407    4.2467    0.0020 O.3       1 <0>        -0.3361
     14 C8          2.2552    5.6962    0.0101 C.3       1 <0>         0.0611
     15 C9          3.6438    6.2814    0.0001 C.2       1 <0>         0.5524
     16 O5          4.6101    5.5494   -0.0126 O.2       1 <0>        -0.4729
     17 N2          3.8116    7.6187    0.0053 N.am      1 <0>        -0.5828
     18 C10         5.1068    8.3150    0.0025 C.3       1 <0>         0.0769
     19 C11         4.7236    9.8076    0.0075 C.3       1 <0>         0.0816
     20 N3          3.2532    9.7938    0.0218 N.am      1 <0>        -0.7320
     21 C12         2.8250    8.5246    0.0195 C.2       1 <0>         0.7051
     22 O6          1.6479    8.2224    0.0291 O.2       1 <0>        -0.5522
     23 F1         -1.1944    2.0404    0.0188 F         1 <0>        -0.0995
     24 H1          1.2161   -1.7615   -0.0202 H         1 <0>         0.1632
     25 H2         -0.9264   -0.5557    0.0079 H         1 <0>         0.1619
     26 H3          3.3342    1.9382   -0.0190 H         1 <0>         0.1691
     27 H4          5.2939   -1.6398   -1.6835 H         1 <0>         0.4172
     28 H5          4.4466   -0.1193   -2.1272 H         1 <0>         0.4116
     29 H6          1.7076    6.0362   -0.8813 H         1 <0>         0.1215
     30 H7          1.7243    6.0272    0.9149 H         1 <0>         0.1214
     31 H8          5.6784    8.0297    0.8980 H         1 <0>         0.1008
     32 H9          5.6722    8.0341   -0.8983 H         1 <0>         0.1010
     33 H10         5.1434   10.2909    0.9020 H         1 <0>         0.0950
     34 H11         5.1259   10.2925   -0.8942 H         1 <0>         0.0948
     35 H12         2.6944   10.7412    0.0321 H         1 <0>         0.4691
@<TRIPOS>BOND
     1    1    6 ar
     2    1    2 ar
     3    1   24 1
     4    2    3 ar
     5    2   25 1
     6    3    4 ar
     7    3   23 1
     8    4    5 ar
     9    4   11 1
    10    5    6 ar
    11    5   26 1
    12    6    7 1
    13    7    8 2
    14    7    9 2
    15    7   10 1
    16   10   27 1
    17   10   28 1
    18   11   12 2
    19   11   13 1
    20   13   14 1
    21   14   15 1
    22   14   29 1
    23   14   30 1
    24   15   16 2
    25   15   17 am
    26   17   21 am
    27   17   18 1
    28   18   19 1
    29   18   31 1
    30   18   32 1
    31   19   20 1
    32   19   33 1
    33   19   34 1
    34   20   21 am
    35   20   35 1
    36   21   22 2
@<TRIPOS>MOLECULE
ZINC38924769
   38    39     0     0     0
SMALL
USER_CHARGES

@<TRIPOS>ATOM
      1 C1         -0.0184    1.5028    0.0103 C.3       1 <0>        -0.1374
      2 C2          0.0021   -0.0041    0.0020 C.2       1 <0>         0.2283
      3 C3         -1.1561   -0.6982    0.0037 C.2       1 <0>        -0.2856
      4 C4         -1.1111   -2.1132   -0.0047 C.2       1 <0>         0.5549
      5 O1         -2.1424   -2.7608   -0.0038 O.2       1 <0>        -0.4895
      6 N1          0.0842   -2.7371   -0.0142 N.am      1 <0>        -0.6581
      7 H1          0.1232   -3.7063   -0.0203 H         1 <0>         0.4350
      8 C5          1.2235   -2.0204   -0.0156 C.2       1 <0>         0.7004
      9 O2          2.2941   -2.5967   -0.0242 O.2       1 <0>        -0.5325
     10 N2          1.1944   -0.6753   -0.0130 N.am      1 <0>        -0.6319
     11 H2          2.0264   -0.1767   -0.0182 H         1 <0>         0.4387
     12 C6         -2.4789    0.0237    0.0149 C.3       1 <0>         0.0555
     13 C7         -2.9864    0.1643   -1.3971 C.2       1 <0>         0.1702
     14 N3         -3.7501   -0.6797   -2.0267 N.2       1 <0>        -0.2535
     15 N4         -3.9879   -0.2432   -3.2133 N.2       1 <0>        -0.2913
     16 C8         -3.3781    0.9053   -3.3833 C.2       1 <0>         0.1172
     17 O3         -2.7360    1.1899   -2.2346 O.3       1 <0>        -0.2037
     18 S1         -3.4011    1.8952   -4.8407 S.3       1 <0>         0.1489
     19 C9         -4.4409    0.9560   -5.9928 C.3       1 <0>        -0.1630
     20 C10        -4.5449    1.7020   -7.2981 C.2       1 <0>         0.5442
     21 O4         -3.9741    2.7624   -7.4373 O.2       1 <0>        -0.4472
     22 N5         -5.2726    1.1903   -8.3106 N.am      1 <0>        -0.6844
     23 C11        -5.3656    1.8575   -9.4779 C.2       1 <0>         0.6931
     24 O5         -4.7933    2.9206   -9.6175 O.2       1 <0>        -0.5237
     25 N6         -6.0933    1.3458  -10.4904 N.am      1 <0>        -0.7388
     26 C12        -6.1944    2.0710  -11.7593 C.3       1 <0>         0.1015
     27 H3          1.0042    1.8801    0.0026 H         1 <0>         0.0883
     28 H4         -0.5455    1.8639   -0.8728 H         1 <0>         0.1037
     29 H5         -0.5286    1.8543    0.9071 H         1 <0>         0.1089
     30 H6         -3.1981   -0.5448    0.6045 H         1 <0>         0.1330
     31 H7         -2.3494    1.0126    0.4546 H         1 <0>         0.1147
     32 H8         -3.9956   -0.0232   -6.1685 H         1 <0>         0.1381
     33 H9         -5.4358    0.8313   -5.5653 H         1 <0>         0.1390
     34 H10        -5.7294    0.3419   -8.1991 H         1 <0>         0.4148
     35 H11        -6.5500    0.4974  -10.3790 H         1 <0>         0.4021
     36 H12        -5.1995    2.1957  -12.1868 H         1 <0>         0.0638
     37 H13        -6.8192    1.5067  -12.4515 H         1 <0>         0.0826
     38 H14        -6.6397    3.0503  -11.5836 H         1 <0>         0.0639
@<TRIPOS>BOND
     1    1    2 1
     2    1   27 1
     3    1   28 1
     4    1   29 1
     5    2   10 1
     6    2    3 2
     7    3    4 1
     8    3   12 1
     9    4    5 2
    10    4    6 am
    11    6    7 1
    12    6    8 am
    13    8    9 2
    14    8   10 am
    15   10   11 1
    16   12   13 1
    17   12   30 1
    18   12   31 1
    19   13   17 1
    20   13   14 2
    21   14   15 1
    22   15   16 2
    23   16   17 1
    24   16   18 1
    25   18   19 1
    26   19   20 1
    27   19   32 1
    28   19   33 1
    29   20   21 2
    30   20   22 am
    31   22   23 am
    32   22   34 1
    33   23   24 2
    34   23   25 am
    35   25   26 1
    36   25   35 1
    37   26   36 1
    38   26   37 1
    39   26   38 1
@<TRIPOS>MOLECULE
ZINC48952926
   37    38     0     0     0
SMALL
USER_CHARGES

@<TRIPOS>ATOM
      1 C1         -0.0188    1.5335    0.0105 C.3       1 <0>        -0.1352
      2 C2          1.4289    2.0809   -0.0004 C.3       1 <0>        -0.5765
      3 S1          2.3583    0.7478   -0.8615 S.o2      1 <0>         2.3757
      4 O1          3.3158    0.1993    0.0338 O.2       1 <0>        -0.9264
      5 O2          2.7814    1.2252   -2.1313 O.2       1 <0>        -0.9316
      6 C3          0.9956   -0.4689   -1.1008 C.3       1 <0>        -0.5980
      7 C4          0.0021   -0.0041    0.0020 C.3       1 <0>         0.1572
      8 H1          0.3313   -0.3731    0.9734 H         1 <0>         0.1204
      9 N1         -1.3388   -0.5155   -0.2925 N.am      1 <0>        -0.7304
     10 C5         -1.6973   -1.7460    0.1243 C.2       1 <0>         0.7167
     11 O3         -0.9078   -2.4317    0.7447 O.2       1 <0>        -0.5570
     12 N2         -2.9308   -2.2165   -0.1467 N.am      1 <0>        -0.5253
     13 N3         -3.8405   -1.4264   -0.8616 N.am      1 <0>        -0.5302
     14 C6         -5.0741   -1.8969   -1.1325 C.2       1 <0>         0.5244
     15 O4         -5.3966   -3.0043   -0.7575 O.2       1 <0>        -0.4961
     16 C7         -6.0526   -1.0470   -1.9015 C.3       1 <0>         0.0491
     17 H2         -6.1705   -0.0852   -1.4023 H         1 <0>         0.1036
     18 C8         -5.5302   -0.8249   -3.3238 C.3       1 <0>         0.0348
     19 O5         -6.5146   -0.1131   -4.0796 O.3       1 <0>        -0.3683
     20 C9         -7.7795   -0.7788   -4.1428 C.3       1 <0>         0.0184
     21 C10        -8.3020   -1.0009   -2.7205 C.3       1 <0>         0.0240
     22 O6         -7.3179   -1.7120   -1.9633 O.3       1 <0>        -0.3484
     23 H3         -0.5313    1.8835    0.9065 H         1 <0>         0.1060
     24 H4         -0.5483    1.8930   -0.8718 H         1 <0>         0.0938
     25 H5          1.4848    3.0146   -0.5601 H         1 <0>         0.1478
     26 H6          1.7988    2.2155    1.0160 H         1 <0>         0.1450
     27 H7          0.5543   -0.3764   -2.0932 H         1 <0>         0.1432
     28 H8          1.3394   -1.4869   -0.9179 H         1 <0>         0.1494
     29 H9         -1.9686    0.0316   -0.7874 H         1 <0>         0.3950
     30 H10        -3.1888   -3.1022    0.1533 H         1 <0>         0.4479
     31 H11        -3.5825   -0.5408   -1.1615 H         1 <0>         0.4196
     32 H12        -4.6088   -0.2436   -3.2868 H         1 <0>         0.1108
     33 H13        -5.3355   -1.7883   -3.7950 H         1 <0>         0.0732
     34 H14        -8.4873   -0.1641   -4.6990 H         1 <0>         0.1140
     35 H15        -7.6605   -1.7406   -4.6415 H         1 <0>         0.0680
     36 H16        -8.4966   -0.0375   -2.2493 H         1 <0>         0.0684
     37 H17        -9.2233   -1.5822   -2.7574 H         1 <0>         0.1170
@<TRIPOS>BOND
     1    1    7 1
     2    1    2 1
     3    1   23 1
     4    1   24 1
     5    2    3 1
     6    2   25 1
     7    2   26 1
     8    3    4 2
     9    3    5 2
    10    3    6 1
    11    6    7 1
    12    6   27 1
    13    6   28 1
    14    7    8 1
    15    7    9 1
    16    9   10 am
    17    9   29 1
    18   10   11 2
    19   10   12 am
    20   12   13 1
    21   12   30 1
    22   13   14 am
    23   13   31 1
    24   14   15 2
    25   14   16 1
    26   16   17 1
    27   16   22 1
    28   16   18 1
    29   18   19 1
    30   18   32 1
    31   18   33 1
    32   19   20 1
    33   20   21 1
    34   20   34 1
    35   20   35 1
    36   21   22 1
    37   21   36 1
    38   21   37 1
@<TRIPOS>MOLECULE
ZINC03840200
   58    60     0     0     0
SMALL
USER_CHARGES
1,3,4-trihydroxy-N-(2-oxo-3-piperidyl)-5-(p-tolylcarbamoylamino)cyclohexane-1-carboxamide
@<TRIPOS>ATOM
      1 C1         -5.3518    9.3167    4.4789 C.3       1 <0>        -0.1126
      2 C2         -4.1630    8.6745    3.8115 C.ar      1 <0>        -0.1065
      3 C3         -2.9838    9.3831    3.6723 C.ar      1 <0>        -0.1007
      4 C4         -1.8925    8.7974    3.0611 C.ar      1 <0>        -0.1466
      5 C5         -1.9804    7.4955    2.5861 C.ar      1 <0>         0.1650
      6 C6         -3.1679    6.7885    2.7222 C.ar      1 <0>        -0.1160
      7 C7         -4.2537    7.3777    3.3399 C.ar      1 <0>        -0.1001
      8 N1         -0.8765    6.8991    1.9663 N.am      1 <0>        -0.6893
      9 C8         -0.6639    5.5747    2.0976 C.2       1 <0>         0.7080
     10 O1         -1.3740    4.9149    2.8316 O.2       1 <0>        -0.5459
     11 N2          0.3357    4.9817    1.4152 N.am      1 <0>        -0.7346
     12 C9          0.5667    3.5421    1.5580 C.3       1 <0>         0.1807
     13 H1         -0.3881    3.0316    1.6840 H         1 <0>         0.1104
     14 C10         1.2673    3.0114    0.3056 C.3       1 <0>        -0.1021
     15 C11         1.5086    1.5079    0.4547 C.3       1 <0>         0.1357
     16 C12         2.3895    1.2517    1.6791 C.3       1 <0>        -0.1772
     17 C13         1.6888    1.7824    2.9315 C.3       1 <0>         0.0824
     18 H2          0.7340    1.2719    3.0575 H         1 <0>         0.0780
     19 C14         1.4476    3.2859    2.7824 C.3       1 <0>         0.1037
     20 H3          2.4024    3.7963    2.6564 H         1 <0>         0.0592
     21 O2          0.7932    3.7815    3.9521 O.3       1 <0>        -0.5352
     22 O3          2.5115    1.5430    4.0751 O.3       1 <0>        -0.5625
     23 C15         2.1987    0.9852   -0.7788 C.2       1 <0>         0.5052
     24 O4          2.8659    1.7320   -1.4629 O.2       1 <0>        -0.5055
     25 N3          2.0744   -0.3123   -1.1218 N.am      1 <0>        -0.7135
     26 C16         2.7453   -0.8205   -2.3209 C.3       1 <0>         0.1365
     27 H4          3.6984   -0.3071   -2.4476 H         1 <0>         0.1216
     28 C17         2.9954   -2.3226   -2.1656 C.3       1 <0>        -0.1309
     29 C18         3.4398   -2.8827   -3.5221 C.3       1 <0>        -0.1351
     30 C19         2.2628   -2.8016   -4.4949 C.3       1 <0>         0.1058
     31 N4          1.6926   -1.4603   -4.4952 N.am      1 <0>        -0.7205
     32 C20         1.8794   -0.5682   -3.5217 C.2       1 <0>         0.5010
     33 O5          1.3205    0.5044   -3.6112 O.2       1 <0>        -0.5283
     34 O6          0.2568    0.8387    0.6199 O.3       1 <0>        -0.5345
     35 H5         -5.9584    9.8252    3.7296 H         1 <0>         0.0684
     36 H6         -5.9500    8.5500    4.9714 H         1 <0>         0.0651
     37 H7         -5.0069   10.0392    5.2185 H         1 <0>         0.0647
     38 H8         -2.9161   10.3957    4.0416 H         1 <0>         0.1243
     39 H9         -0.9716    9.3512    2.9530 H         1 <0>         0.1232
     40 H10        -3.2409    5.7775    2.3495 H         1 <0>         0.1349
     41 H11        -5.1761    6.8269    3.4501 H         1 <0>         0.1237
     42 H12        -0.2642    7.4390    1.4422 H         1 <0>         0.4042
     43 H13         0.9021    5.5081    0.8296 H         1 <0>         0.3962
     44 H14         2.2221    3.5218    0.1796 H         1 <0>         0.0987
     45 H15         0.6398    3.1939   -0.5667 H         1 <0>         0.0955
     46 H16         2.5613    0.1805    1.7853 H         1 <0>         0.0809
     47 H17         3.3442    1.7621    1.5531 H         1 <0>         0.0938
     48 H18         1.2956    3.6527    4.7683 H         1 <0>         0.3782
     49 H19         2.7059    0.6087    4.2312 H         1 <0>         0.3835
     50 H20         1.5408   -0.9096   -0.5747 H         1 <0>         0.4002
     51 H21         3.7780   -2.4897   -1.4255 H         1 <0>         0.0875
     52 H22         2.0773   -2.8165   -1.8475 H         1 <0>         0.0793
     53 H23         3.7472   -3.9220   -3.4057 H         1 <0>         0.0948
     54 H24         4.2736   -2.2957   -3.9071 H         1 <0>         0.0784
     55 H25         1.4979   -3.5182   -4.1956 H         1 <0>         0.0693
     56 H26         2.6081   -3.0465   -5.4994 H         1 <0>         0.0816
     57 H27         1.1424   -1.2003   -5.2506 H         1 <0>         0.4019
     58 H28         0.3337   -0.1200    0.7206 H         1 <0>         0.3760
@<TRIPOS>BOND
     1    1    2 1
     2    1   35 1
     3    1   36 1
     4    1   37 1
     5    2    7 ar
     6    2    3 ar
     7    3    4 ar
     8    3   38 1
     9    4    5 ar
    10    4   39 1
    11    5    6 ar
    12    5    8 1
    13    6    7 ar
    14    6   40 1
    15    7   41 1
    16    8    9 am
    17    8   42 1
    18    9   10 2
    19    9   11 am
    20   11   12 1
    21   11   43 1
    22   12   13 1
    23   12   19 1
    24   12   14 1
    25   14   15 1
    26   14   44 1
    27   14   45 1
    28   15   16 1
    29   15   23 1
    30   15   34 1
    31   16   17 1
    32   16   46 1
    33   16   47 1
    34   17   18 1
    35   17   19 1
    36   17   22 1
    37   19   20 1
    38   19   21 1
    39   21   48 1
    40   22   49 1
    41   23   24 2
    42   23   25 am
    43   25   26 1
    44   25   50 1
    45   26   27 1
    46   26   32 1
    47   26   28 1
    48   28   29 1
    49   28   51 1
    50   28   52 1
    51   29   30 1
    52   29   53 1
    53   29   54 1
    54   30   31 1
    55   30   55 1
    56   30   56 1
    57   31   32 am
    58   31   57 1
    59   32   33 2
    60   34   58 1
@<TRIPOS>MOLECULE
ZINC13322012
   52    55     0     0     0
SMALL
USER_CHARGES
(2S)-7-hydroxy-2-[4-[(2R,3R,4R,5S,6S)-3,4,5-trihydroxy-6-(hydroxymethyl)tetrahydropyran-2-yl]oxyphenyl]chroman-4-one
@<TRIPOS>ATOM
      1 C1          6.4515    1.2393    3.3145 C.ar      1 <0>        -0.0647
      2 C2          5.5989    1.7178    2.3386 C.ar      1 <0>        -0.1447
      3 C3          4.2998    1.2377    2.2579 C.ar      1 <0>         0.1374
      4 C4          3.8585    0.2821    3.1616 C.ar      1 <0>        -0.1844
      5 C5          4.7167   -0.1971    4.1324 C.ar      1 <0>        -0.0495
      6 C6          6.0111    0.2826    4.2104 C.ar      1 <0>        -0.1279
      7 C7          6.9433   -0.2376    5.2741 C.3       1 <0>         0.1498
      8 H1          7.7104    0.5083    5.4820 H         1 <0>         0.0902
      9 C8          7.6069   -1.5332    4.7848 C.3       1 <0>        -0.1842
     10 C9          8.5054   -2.0277    5.9043 C.2       1 <0>         0.4030
     11 O1          9.6009   -2.4996    5.6820 O.2       1 <0>        -0.4408
     12 C10         7.9788   -1.9056    7.2720 C.ar      1 <0>        -0.2653
     13 C11         8.6107   -2.5496    8.3399 C.ar      1 <0>        -0.0069
     14 C12         8.1119   -2.4153    9.6042 C.ar      1 <0>        -0.1904
     15 C13         6.9776   -1.6400    9.8327 C.ar      1 <0>         0.1811
     16 C14         6.3386   -0.9977    8.7822 C.ar      1 <0>        -0.1906
     17 C15         6.8299   -1.1255    7.4930 C.ar      1 <0>         0.2012
     18 O2          6.2042   -0.5057    6.4655 O.3       1 <0>        -0.2993
     19 O3          6.4934   -1.5120   11.0935 O.3       1 <0>        -0.4936
     20 O4          3.4591    1.7069    1.2986 O.3       1 <0>        -0.2938
     21 C16         2.1361    1.1674    1.2752 C.3       1 <0>         0.2245
     22 H2          2.1867    0.0789    1.2988 H         1 <0>         0.0690
     23 C17         1.4237    1.6178   -0.0028 C.3       1 <0>         0.0663
     24 H3          1.9509    1.2254   -0.8724 H         1 <0>         0.0732
     25 C18        -0.0127    1.0858    0.0080 C.3       1 <0>         0.0793
     26 H4          0.0021   -0.0041    0.0020 H         1 <0>         0.0802
     27 C19        -0.7196    1.5817    1.2732 C.3       1 <0>         0.0901
     28 H5         -1.7249    1.1627    1.3168 H         1 <0>         0.0758
     29 C20         0.0756    1.1327    2.5019 C.3       1 <0>         0.1118
     30 H6          0.0992    0.0437    2.5418 H         1 <0>         0.0805
     31 O5          1.4103    1.6355    2.4137 O.3       1 <0>        -0.3610
     32 C21        -0.5914    1.6752    3.7675 C.3       1 <0>         0.0895
     33 O6          0.0825    1.1622    4.9185 O.3       1 <0>        -0.5678
     34 O7         -0.7964    3.0085    1.2492 O.3       1 <0>        -0.5282
     35 O8         -0.7072    1.5608   -1.1470 O.3       1 <0>        -0.5457
     36 O9          1.4037    3.0455   -0.0606 O.3       1 <0>        -0.5208
     37 H7          7.4628    1.6130    3.3780 H         1 <0>         0.1349
     38 H8          5.9433    2.4653    1.6392 H         1 <0>         0.1365
     39 H9          2.8463   -0.0900    3.1036 H         1 <0>         0.1315
     40 H10         4.3750   -0.9443    4.8333 H         1 <0>         0.1319
     41 H11         6.9014   -2.2086    4.5703 H         1 <0>         0.1040
     42 H12         8.2009   -1.3323    3.8932 H         1 <0>         0.1147
     43 H13         9.4907   -3.1510    8.1657 H         1 <0>         0.1419
     44 H14         8.5987   -2.9126   10.4301 H         1 <0>         0.1395
     45 H15         5.4596   -0.3987    8.9691 H         1 <0>         0.1466
     46 H16         6.8634   -0.7646   11.5829 H         1 <0>         0.4014
     47 H17        -0.5362    2.7638    3.7693 H         1 <0>         0.0699
     48 H18        -1.6360    1.3644    3.7895 H         1 <0>         0.0646
     49 H19        -0.2878    1.4654    5.7587 H         1 <0>         0.3846
     50 H20        -1.2834    3.3635    0.4930 H         1 <0>         0.3855
     51 H21        -0.3105    1.2861   -1.9851 H         1 <0>         0.3873
     52 H22         2.2815    3.4511   -0.0705 H         1 <0>         0.3817
@<TRIPOS>BOND
     1    1    6 ar
     2    1    2 ar
     3    1   37 1
     4    2    3 ar
     5    2   38 1
     6    3    4 ar
     7    3   20 1
     8    4    5 ar
     9    4   39 1
    10    5    6 ar
    11    5   40 1
    12    6    7 1
    13    7    8 1
    14    7   18 1
    15    7    9 1
    16    9   10 1
    17    9   41 1
    18    9   42 1
    19   10   11 2
    20   10   12 1
    21   12   17 ar
    22   12   13 ar
    23   13   14 ar
    24   13   43 1
    25   14   15 ar
    26   14   44 1
    27   15   16 ar
    28   15   19 1
    29   16   17 ar
    30   16   45 1
    31   17   18 1
    32   19   46 1
    33   20   21 1
    34   21   22 1
    35   21   31 1
    36   21   23 1
    37   23   24 1
    38   23   25 1
    39   23   36 1
    40   25   26 1
    41   25   27 1
    42   25   35 1
    43   27   28 1
    44   27   29 1
    45   27   34 1
    46   29   30 1
    47   29   31 1
    48   29   32 1
    49   32   33 1
    50   32   47 1
    51   32   48 1
    52   33   49 1
    53   34   50 1
    54   35   51 1
    55   36   52 1
@<TRIPOS>MOLECULE
ZINC31502634
   54    57     0     0     0
SMALL
USER_CHARGES
(2R)-9-hydroxy-2-[1-methyl-1-[(2S,3R,4S,5S,6R)-3,4,5-trihydroxy-6-(hydroxymethyl)tetrahydropyran-2-yl]oxy-ethyl]-2,3-dihydrofuro[3,2-g]chromen-7-one
@<TRIPOS>ATOM
      1 C1          0.9628   -2.8354   -0.5741 C.3       1 <0>        -0.1764
      2 C2          1.8699   -1.6048   -0.5143 C.3       1 <0>         0.1116
      3 C3          2.4587   -1.3373   -1.9009 C.3       1 <0>        -0.1818
      4 C4          1.0541   -0.3913   -0.0638 C.3       1 <0>         0.0975
      5 H1          0.2805   -0.2211   -0.8271 H         1 <0>         0.1069
      6 C5          0.5255   -0.5861    1.3768 C.3       1 <0>        -0.0973
      7 C6          0.6153    0.8213    1.9363 C.ar      1 <0>        -0.1419
      8 C7          0.0564    1.3979    3.0364 C.ar      1 <0>        -0.0477
      9 C8          0.3044    2.7463    3.3178 C.ar      1 <0>        -0.1490
     10 C9         -0.2817    3.3942    4.4926 C.2       1 <0>         0.0067
     11 C10        -0.0024    4.7060    4.7080 C.2       1 <0>        -0.2466
     12 C11         0.8320    5.4016    3.8087 C.2       1 <0>         0.5061
     13 O1          1.0743    6.5776    4.0131 O.2       1 <0>        -0.4628
     14 O2          1.3658    4.8018    2.7336 O.3       1 <0>        -0.2563
     15 C12         1.1294    3.4990    2.4621 C.ar      1 <0>         0.1371
     16 C13         1.6961    2.8922    1.3493 C.ar      1 <0>         0.1325
     17 C14         1.4409    1.5479    1.0791 C.ar      1 <0>         0.0686
     18 O3          1.8931    0.7693    0.0572 O.3       1 <0>        -0.2827
     19 O4          2.5000    3.6111    0.5193 O.3       1 <0>        -0.4927
     20 O5          2.9292   -1.8385    0.4159 O.3       1 <0>        -0.3323
     21 C15         3.7435   -2.9689    0.0975 C.3       1 <0>         0.2634
     22 H2          3.9243   -2.9521   -0.9874 H         1 <0>         0.0717
     23 C16         5.0302   -2.9206    0.9256 C.3       1 <0>         0.1180
     24 H3          4.8137   -2.8316    2.0004 H         1 <0>         0.0781
     25 C17         5.8696   -4.1657    0.6233 C.3       1 <0>         0.0995
     26 H4          6.2387   -4.1623   -0.4129 H         1 <0>         0.0720
     27 C18         5.0345   -5.4153    0.9192 C.3       1 <0>         0.0641
     28 H5          4.8185   -5.5106    1.9936 H         1 <0>         0.0761
     29 C19         3.7475   -5.3672    0.0914 C.3       1 <0>         0.0686
     30 H6          3.9661   -5.3190   -0.9856 H         1 <0>         0.0765
     31 O6          3.0300   -4.1700    0.3980 O.3       1 <0>        -0.3804
     32 C20         2.8798   -6.5821    0.4258 C.3       1 <0>         0.0953
     33 O7          1.7342   -6.5988   -0.4283 O.3       1 <0>        -0.5912
     34 O8          5.7821   -6.5826    0.5722 O.3       1 <0>        -0.5912
     35 O9          7.0380   -4.1659    1.4461 O.3       1 <0>        -0.5920
     36 O10         5.7739   -1.7490    0.5845 O.3       1 <0>        -0.5780
     37 H7          0.5395   -3.0277    0.4228 H         1 <0>         0.0697
     38 H8          1.5493   -3.7078   -0.8979 H         1 <0>         0.0930
     39 H9          0.1474   -2.6554   -1.2902 H         1 <0>         0.0641
     40 H10         3.1109   -0.4525   -1.8578 H         1 <0>         0.0764
     41 H11         1.6433   -1.1573   -2.6170 H         1 <0>         0.0734
     42 H12         3.0452   -2.2097   -2.2247 H         1 <0>         0.0634
     43 H13        -0.5042   -0.9714    1.3406 H         1 <0>         0.0980
     44 H14         1.1671   -1.3039    1.9089 H         1 <0>         0.1105
     45 H15        -0.5770    0.8162    3.6897 H         1 <0>         0.1442
     46 H16        -0.9184    2.8441    5.1697 H         1 <0>         0.1573
     47 H17        -0.4178    5.2147    5.5653 H         1 <0>         0.1660
     48 H18         2.9495    3.1314   -0.3626 H         1 <0>         0.4443
     49 H19         3.4634   -7.5022    0.2746 H         1 <0>         0.0595
     50 H20         2.5542   -6.5226    1.4748 H         1 <0>         0.0559
     51 H21         0.9902   -7.4036   -0.3349 H         1 <0>         0.4147
     52 H22         5.3420   -7.5804    0.7159 H         1 <0>         0.4138
     53 H23         7.7652   -4.9876    1.3686 H         1 <0>         0.4239
     54 H24         6.7339   -1.5431    1.0806 H         1 <0>         0.4219
@<TRIPOS>BOND
     1    1    2 1
     2    1   37 1
     3    1   38 1
     4    1   39 1
     5    2    3 1
     6    2    4 1
     7    2   20 1
     8    3   40 1
     9    3   41 1
    10    3   42 1
    11    4    5 1
    12    4   18 1
    13    4    6 1
    14    6    7 1
    15    6   43 1
    16    6   44 1
    17    7   17 ar
    18    7    8 ar
    19    8    9 ar
    20    8   45 1
    21    9   15 ar
    22    9   10 1
    23   10   11 2
    24   10   46 1
    25   11   12 1
    26   11   47 1
    27   12   13 2
    28   12   14 1
    29   14   15 1
    30   15   16 ar
    31   16   17 ar
    32   16   19 1
    33   17   18 1
    34   19   48 1
    35   20   21 1
    36   21   22 1
    37   21   31 1
    38   21   23 1
    39   23   24 1
    40   23   25 1
    41   23   36 1
    42   25   26 1
    43   25   27 1
    44   25   35 1
    45   27   28 1
    46   27   29 1
    47   27   34 1
    48   29   30 1
    49   29   31 1
    50   29   32 1
    51   32   33 1
    52   32   49 1
    53   32   50 1
    54   33   51 1
    55   34   52 1
    56   35   53 1
    57   36   54 1
@<TRIPOS>MOLECULE
ZINC31157104
   54    57     0     0     0
SMALL
USER_CHARGES

@<TRIPOS>ATOM
      1 C1          0.2557    1.1502    0.5427 C.3       1 <0>        -0.1673
      2 C2          0.0927   -0.3089    0.1121 C.3       1 <0>         0.1022
      3 C3          0.9009   -1.2101    1.0479 C.3       1 <0>        -0.1891
      4 C4         -1.3853   -0.6985    0.1795 C.3       1 <0>         0.1044
      5 H1         -1.9686   -0.1192   -0.5362 H         1 <0>         0.1408
      6 C5         -1.5637   -2.2149   -0.0684 C.3       1 <0>         0.1305
      7 H2         -0.7371   -2.6133   -0.6567 H         1 <0>         0.0997
      8 C6         -1.5402   -2.7682    1.3441 C.ar      1 <0>        -0.2286
      9 C7         -1.3754   -4.0324    1.8211 C.ar      1 <0>         0.0071
     10 C8         -1.3899   -4.2610    3.2018 C.ar      1 <0>        -0.1916
     11 C9         -1.2154   -5.6082    3.7473 C.2       1 <0>         0.0108
     12 C10        -1.2389   -5.7615    5.0971 C.2       1 <0>        -0.2529
     13 C11        -1.4274   -4.6371    5.9267 C.2       1 <0>         0.5095
     14 O1         -1.4473   -4.7883    7.1350 O.2       1 <0>        -0.4585
     15 O2         -1.5850   -3.4044    5.4198 O.3       1 <0>        -0.2687
     16 C12        -1.5744   -3.1826    4.0873 C.ar      1 <0>         0.1945
     17 C13        -1.7440   -1.9047    3.5819 C.ar      1 <0>        -0.1654
     18 C14        -1.7314   -1.6883    2.2074 C.ar      1 <0>         0.1798
     19 O3         -1.8969   -0.5254    1.5115 O.3       1 <0>        -0.2682
     20 O4         -2.8154   -2.4848   -0.7027 O.3       1 <0>        -0.5442
     21 O5          0.5662   -0.4660   -1.2270 O.3       1 <0>        -0.3353
     22 C15         1.9416   -0.1200   -1.4016 C.3       1 <0>         0.2646
     23 H3          2.5310   -0.5541   -0.5940 H         1 <0>         0.0730
     24 C16         2.4380   -0.6622   -2.7444 C.3       1 <0>         0.0571
     25 H4          1.8230   -0.2600   -3.5494 H         1 <0>         0.0862
     26 C17         3.8947   -0.2359   -2.9513 C.3       1 <0>         0.0421
     27 H5          4.5180   -0.6787   -2.1744 H         1 <0>         0.0800
     28 C18         3.9844    1.2911   -2.8720 C.3       1 <0>         0.0904
     29 H6          3.4006    1.7328   -3.6796 H         1 <0>         0.0796
     30 C19         3.4283    1.7579   -1.5242 C.3       1 <0>         0.1063
     31 H7          4.0373    1.3485   -0.7182 H         1 <0>         0.0809
     32 O6          2.0814    1.3021   -1.3823 O.3       1 <0>        -0.3662
     33 C20         3.4592    3.2863   -1.4612 C.3       1 <0>         0.0907
     34 O7          3.0501    3.7179   -0.1618 O.3       1 <0>        -0.5659
     35 O8          5.3495    1.6962   -2.9928 O.3       1 <0>        -0.5515
     36 O9          4.3442   -0.6770   -4.2340 O.3       1 <0>        -0.5541
     37 O10         2.3520   -2.0886   -2.7447 O.3       1 <0>        -0.5454
     38 H8          1.3162    1.3908    0.6171 H         1 <0>         0.0818
     39 H9         -0.2137    1.8013   -0.1948 H         1 <0>         0.0717
     40 H10        -0.2193    1.2980    1.5126 H         1 <0>         0.0694
     41 H11         0.5398   -1.0902    2.0693 H         1 <0>         0.0744
     42 H12         0.7848   -2.2495    0.7411 H         1 <0>         0.0720
     43 H13         1.9539   -0.9325    0.9998 H         1 <0>         0.0678
     44 H14        -1.2343   -4.8559    1.1368 H         1 <0>         0.1441
     45 H15        -1.0723   -6.4568    3.0949 H         1 <0>         0.1552
     46 H16        -1.1132   -6.7415    5.5332 H         1 <0>         0.1662
     47 H17        -1.8863   -1.0734    4.2565 H         1 <0>         0.1533
     48 H18        -2.9729   -3.4225   -0.8788 H         1 <0>         0.3866
     49 H19         4.4720    3.6377   -1.6586 H         1 <0>         0.0764
     50 H20         2.7806    3.6946   -2.2101 H         1 <0>         0.0573
     51 H21         3.0458    4.6783   -0.0496 H         1 <0>         0.3854
     52 H22         5.7670    1.4290   -3.8231 H         1 <0>         0.3938
     53 H23         4.3082   -1.6357   -4.3552 H         1 <0>         0.3855
     54 H24         2.6511   -2.5005   -3.5668 H         1 <0>         0.3820
@<TRIPOS>BOND
     1    1    2 1
     2    1   38 1
     3    1   39 1
     4    1   40 1
     5    2    3 1
     6    2    4 1
     7    2   21 1
     8    3   41 1
     9    3   42 1
    10    3   43 1
    11    4    5 1
    12    4   19 1
    13    4    6 1
    14    6    7 1
    15    6    8 1
    16    6   20 1
    17    8   18 ar
    18    8    9 ar
    19    9   10 ar
    20    9   44 1
    21   10   16 ar
    22   10   11 1
    23   11   12 2
    24   11   45 1
    25   12   13 1
    26   12   46 1
    27   13   14 2
    28   13   15 1
    29   15   16 1
    30   16   17 ar
    31   17   18 ar
    32   17   47 1
    33   18   19 1
    34   20   48 1
    35   21   22 1
    36   22   23 1
    37   22   32 1
    38   22   24 1
    39   24   25 1
    40   24   26 1
    41   24   37 1
    42   26   27 1
    43   26   28 1
    44   26   36 1
    45   28   29 1
    46   28   30 1
    47   28   35 1
    48   30   31 1
    49   30   32 1
    50   30   33 1
    51   33   34 1
    52   33   49 1
    53   33   50 1
    54   34   51 1
    55   35   52 1
    56   36   53 1
    57   37   54 1
@<TRIPOS>MOLECULE
ZINC43465480
   50    53     0     0     0
SMALL
USER_CHARGES

@<TRIPOS>ATOM
      1 C1         -0.0168    1.3896    0.0097 C.ar      1 <0>        -0.0905
      2 C2          1.1691    2.0940    0.0021 C.ar      1 <0>        -0.1447
      3 C3          2.3804    1.4164   -0.0135 C.ar      1 <0>         0.1102
      4 C4          2.4025    0.0286   -0.0216 C.ar      1 <0>        -0.1437
      5 C5          1.2201   -0.6816   -0.0137 C.ar      1 <0>        -0.0713
      6 C6          0.0021   -0.0041    0.0020 C.ar      1 <0>        -0.0368
      7 C7         -1.2714   -0.7647    0.0106 C.2       1 <0>        -0.2425
      8 C8         -2.1312   -0.6984   -1.0395 C.2       1 <0>         0.1306
      9 O1         -3.2792   -1.3783   -1.0768 O.3       1 <0>        -0.2155
     10 C9         -3.8134   -1.9293    0.0301 C.ar      1 <0>         0.1763
     11 C10        -5.1368   -2.3510    0.0428 C.ar      1 <0>        -0.1748
     12 C11        -5.6660   -2.9233    1.1868 C.ar      1 <0>         0.1943
     13 C12        -4.8838   -3.0822    2.3291 C.ar      1 <0>        -0.2122
     14 C13        -3.5815   -2.6701    2.3350 C.ar      1 <0>         0.0085
     15 C14        -3.0361   -2.0875    1.1913 C.ar      1 <0>        -0.2515
     16 C15        -1.6365   -1.6187    1.1568 C.2       1 <0>         0.4338
     17 O2         -0.8326   -1.9150    2.0240 O.2       1 <0>        -0.4533
     18 O3         -6.9599   -3.3335    1.1962 O.3       1 <0>        -0.3041
     19 C16        -7.4470   -3.9162    2.4066 C.3       1 <0>         0.2139
     20 H1         -6.7554   -4.6889    2.7421 H         1 <0>         0.1142
     21 C17        -8.8238   -4.5371    2.1564 C.3       1 <0>         0.0651
     22 H2         -8.7503   -5.2770    1.3593 H         1 <0>         0.0779
     23 C18        -9.8047   -3.4354    1.7432 C.3       1 <0>         0.0813
     24 H3        -10.8000   -3.8616    1.6177 H         1 <0>         0.0759
     25 C19        -9.8406   -2.3629    2.8362 C.3       1 <0>         0.0905
     26 H4        -10.4942   -1.5478    2.5254 H         1 <0>         0.0762
     27 C20        -8.4245   -1.8260    3.0602 C.3       1 <0>         0.1077
     28 H5         -8.0657   -1.3541    2.1455 H         1 <0>         0.0923
     29 O4         -7.5568   -2.9060    3.4114 O.3       1 <0>        -0.3508
     30 C21        -8.4422   -0.7967    4.1922 C.3       1 <0>         0.0865
     31 O5         -7.1454   -0.2110    4.3236 O.3       1 <0>        -0.5668
     32 O6        -10.3336   -2.9341    4.0498 O.3       1 <0>        -0.5284
     33 O7         -9.3761   -2.8511    0.5116 O.3       1 <0>        -0.5365
     34 O8         -9.2879   -5.1675    3.3519 O.3       1 <0>        -0.5220
     35 O9          3.5472    2.1133   -0.0214 O.3       1 <0>        -0.5001
     36 H6         -0.9590    1.9174    0.0260 H         1 <0>         0.1287
     37 H7          1.1551    3.1739    0.0081 H         1 <0>         0.1320
     38 H8          3.3466   -0.4958   -0.0346 H         1 <0>         0.1319
     39 H9          1.2380   -1.7614   -0.0204 H         1 <0>         0.1279
     40 H10        -1.8752   -0.0690   -1.8790 H         1 <0>         0.2003
     41 H11        -5.7514   -2.2323   -0.8373 H         1 <0>         0.1518
     42 H12        -5.3090   -3.5334    3.2135 H         1 <0>         0.1440
     43 H13        -2.9771   -2.7942    3.2214 H         1 <0>         0.1441
     44 H14        -9.1709   -0.0188    3.9645 H         1 <0>         0.0606
     45 H15        -8.7152   -1.2883    5.1259 H         1 <0>         0.0655
     46 H16        -7.0827    0.4525    5.0243 H         1 <0>         0.3819
     47 H17       -11.2265   -3.2984    3.9787 H         1 <0>         0.3791
     48 H18        -9.3247   -3.4769   -0.2238 H         1 <0>         0.3859
     49 H19        -8.7110   -5.8739    3.6734 H         1 <0>         0.3836
     50 H20         3.8936    2.3103    0.8597 H         1 <0>         0.3928
@<TRIPOS>BOND
     1    1    6 ar
     2    1    2 ar
     3    1   36 1
     4    2    3 ar
     5    2   37 1
     6    3    4 ar
     7    3   35 1
     8    4    5 ar
     9    4   38 1
    10    5    6 ar
    11    5   39 1
    12    6    7 1
    13    7   16 1
    14    7    8 2
    15    8    9 1
    16    8   40 1
    17    9   10 1
    18   10   15 ar
    19   10   11 ar
    20   11   12 ar
    21   11   41 1
    22   12   13 ar
    23   12   18 1
    24   13   14 ar
    25   13   42 1
    26   14   15 ar
    27   14   43 1
    28   15   16 1
    29   16   17 2
    30   18   19 1
    31   19   20 1
    32   19   29 1
    33   19   21 1
    34   21   22 1
    35   21   23 1
    36   21   34 1
    37   23   24 1
    38   23   25 1
    39   23   33 1
    40   25   26 1
    41   25   27 1
    42   25   32 1
    43   27   28 1
    44   27   29 1
    45   27   30 1
    46   30   31 1
    47   30   44 1
    48   30   45 1
    49   31   46 1
    50   32   47 1
    51   33   48 1
    52   34   49 1
    53   35   50 1
@<TRIPOS>MOLECULE
ZINC66595509
   43    46     0     0     0
SMALL
USER_CHARGES

@<TRIPOS>ATOM
      1 C1         -0.0323    1.3800    0.0399 C.ar      1 <0>        -0.1059
      2 C2          1.1659    2.0815    0.0179 C.ar      1 <0>        -0.0049
      3 C3          2.3530    1.3622    0.0044 C.ar      1 <0>         0.1896
      4 C4          2.2987   -0.0340    0.0132 C.ar      1 <0>         0.3851
      5 N1          1.1341   -0.6605    0.0342 N.ar      1 <0>        -0.4400
      6 C5         -0.0091    0.0003    0.0475 C.ar      1 <0>         0.1111
      7 N2          3.4794   -0.7712   -0.0006 N.pl3     1 <0>        -0.6848
      8 C6          4.2460   -1.1387   -1.2001 C.3       1 <0>         0.1239
      9 C7          5.4579   -1.9715   -0.7319 C.3       1 <0>        -0.1336
     10 C8          4.9993   -2.5054    0.6509 C.3       1 <0>        -0.1321
     11 C9          4.1715   -1.3073    1.1855 C.3       1 <0>         0.1177
     12 N3          3.5875    2.0263   -0.0183 N.am      1 <0>        -0.6708
     13 C10         3.7127    3.1936   -0.6804 C.2       1 <0>         0.7079
     14 O1          2.7382    3.7091   -1.1933 O.2       1 <0>        -0.5661
     15 N4          4.9180    3.7893   -0.7741 N.am      1 <0>        -0.4722
     16 N5          6.0408    3.1953   -0.1831 N.pl3     1 <0>        -0.5199
     17 C11         7.2777    3.8067   -0.2792 C.ar      1 <0>         0.6372
     18 N6          7.3596    4.9613   -0.9367 N.ar      1 <0>        -0.6987
     19 C12         8.5009    5.6131   -1.0761 C.ar      1 <0>         0.5416
     20 O2          8.5526    6.7846   -1.7493 O.3       1 <0>        -0.6592
     21 C13         9.6683    5.0533   -0.5018 C.ar      1 <0>        -0.3695
     22 C14        10.9988    5.4070   -0.4269 C.2       1 <0>         0.1439
     23 N7         11.6376    4.4550    0.2648 N.pl3     1 <0>        -0.4587
     24 N8         10.7333    3.4601    0.6549 N.2       1 <0>        -0.3362
     25 H1         12.5866    4.4545    0.4656 H         1 <0>         0.4368
     26 C15         9.5337    3.7746    0.2171 C.ar      1 <0>         0.3459
     27 N9          8.3087    3.2178    0.2891 N.ar      1 <0>        -0.6430
     28 H2         -0.9735    1.9093    0.0553 H         1 <0>         0.1897
     29 H3          1.1740    3.1614    0.0113 H         1 <0>         0.1935
     30 H4         -0.9398   -0.5472    0.0649 H         1 <0>         0.2080
     31 H5          3.6244   -1.7329   -1.8698 H         1 <0>         0.0639
     32 H6          4.5896   -0.2389   -1.7106 H         1 <0>         0.0711
     33 H7          5.6484   -2.7955   -1.4195 H         1 <0>         0.0906
     34 H8          6.3417   -1.3420   -0.6284 H         1 <0>         0.0901
     35 H9          4.3790   -3.3948    0.5402 H         1 <0>         0.0780
     36 H10         5.8550   -2.7055    1.2958 H         1 <0>         0.0958
     37 H11         4.8283   -0.5511    1.6155 H         1 <0>         0.0767
     38 H12         3.4474   -1.6473    1.9259 H         1 <0>         0.0717
     39 H13         4.3515    1.6458    0.4425 H         1 <0>         0.4190
     40 H14         5.0081    4.6294   -1.2506 H         1 <0>         0.4616
     41 H15         5.9507    2.3552    0.2934 H         1 <0>         0.4207
     42 H16        11.4462    6.2939   -0.8509 H         1 <0>         0.1819
     43 H17         1.1193   -1.6304    0.0400 H         1 <0>         0.4429
@<TRIPOS>BOND
     1    1    6 ar
     2    1    2 ar
     3    1   28 1
     4    2    3 ar
     5    2   29 1
     6    3    4 ar
     7    3   12 1
     8    4    5 ar
     9    4    7 1
    10    5    6 ar
    11    5   43 1
    12    6   30 1
    13    7   11 1
    14    7    8 1
    15    8    9 1
    16    8   31 1
    17    8   32 1
    18    9   10 1
    19    9   33 1
    20    9   34 1
    21   10   11 1
    22   10   35 1
    23   10   36 1
    24   11   37 1
    25   11   38 1
    26   12   13 am
    27   12   39 1
    28   13   14 2
    29   13   15 am
    30   15   16 1
    31   15   40 1
    32   16   17 1
    33   16   41 1
    34   17   27 ar
    35   17   18 ar
    36   18   19 ar
    37   19   20 1
    38   19   21 ar
    39   21   26 ar
    40   21   22 2
    41   22   42 1
    42   22   23 1
    43   23   25 1
    44   23   24 1
    45   24   26 2
    46   26   27 ar
@<TRIPOS>MOLECULE
ZINC02539735
   42    44     0     0     0
SMALL
USER_CHARGES
4-methyl-7-[(2S,3R,4R,5R,6S)-3,4,5-trihydroxy-6-(hydroxymethyl)tetrahydropyran-2-yl]oxy-chromen-2-one
@<TRIPOS>ATOM
      1 C1         -0.0127    1.0858    0.0080 C.3       1 <0>        -0.1299
      2 C2         -0.7181    1.5718    1.2479 C.2       1 <0>         0.0408
      3 C3         -0.0298    1.8074    2.3951 C.2       1 <0>        -0.2660
      4 C4         -0.7127    2.2618    3.5420 C.2       1 <0>         0.5121
      5 O1         -0.0833    2.4695    4.5639 O.2       1 <0>        -0.4640
      6 O2         -2.0384    2.4717    3.5365 O.3       1 <0>        -0.2711
      7 C5         -2.7813    2.2569    2.4296 C.ar      1 <0>         0.1859
      8 C6         -2.1632    1.8087    1.2470 C.ar      1 <0>        -0.1858
      9 C7         -2.9303    1.5787    0.0996 C.ar      1 <0>        -0.0152
     10 C8         -4.2766    1.8020    0.1278 C.ar      1 <0>        -0.2011
     11 C9         -4.8931    2.2518    1.2935 C.ar      1 <0>         0.1845
     12 C10        -4.1498    2.4786    2.4406 C.ar      1 <0>        -0.1704
     13 O3         -6.2330    2.4693    1.3056 O.3       1 <0>        -0.3193
     14 C11        -6.9422    2.2168    0.0910 C.3       1 <0>         0.2105
     15 H1         -6.7458    1.1967   -0.2392 H         1 <0>         0.1235
     16 C12        -8.4437    2.3960    0.3299 C.3       1 <0>         0.0618
     17 H2         -8.7681    1.7272    1.1271 H         1 <0>         0.0869
     18 C13        -8.7184    3.8476    0.7353 C.3       1 <0>         0.0833
     19 H3         -8.2150    4.0659    1.6771 H         1 <0>         0.0899
     20 C14        -8.1879    4.7807   -0.3576 C.3       1 <0>         0.0940
     21 H4         -8.7274    4.5970   -1.2867 H         1 <0>         0.0836
     22 C15        -6.6963    4.5091   -0.5698 C.3       1 <0>         0.1019
     23 H5         -6.1519    4.7317    0.3479 H         1 <0>         0.0835
     24 O4         -6.5079    3.1350   -0.9141 O.3       1 <0>        -0.3531
     25 C16        -6.1723    5.3952   -1.7016 C.3       1 <0>         0.0902
     26 O5         -4.7585    5.2264   -1.8232 O.3       1 <0>        -0.5657
     27 O6         -8.3735    6.1397    0.0433 O.3       1 <0>        -0.5558
     28 O7        -10.1256    4.0429    0.8890 O.3       1 <0>        -0.5510
     29 O8         -9.1577    2.0921   -0.8701 O.3       1 <0>        -0.5284
     30 H6          0.0021   -0.0041    0.0020 H         1 <0>         0.0918
     31 H7          1.0099    1.4631    0.0003 H         1 <0>         0.0851
     32 H8         -0.5399    1.4469   -0.8751 H         1 <0>         0.0818
     33 H9          1.0377    1.6468    2.4287 H         1 <0>         0.1633
     34 H10        -2.4580    1.2300   -0.8069 H         1 <0>         0.1443
     35 H11        -4.8678    1.6292   -0.7594 H         1 <0>         0.1468
     36 H12        -4.6350    2.8266    3.3406 H         1 <0>         0.1519
     37 H13        -6.6538    5.1118   -2.6375 H         1 <0>         0.0563
     38 H14        -6.3959    6.4386   -1.4794 H         1 <0>         0.0756
     39 H15        -4.3575    5.7595   -2.5232 H         1 <0>         0.3835
     40 H16        -9.2972    6.3821    0.1957 H         1 <0>         0.3933
     41 H17       -10.5288    3.4827    1.5663 H         1 <0>         0.3865
     42 H18        -9.0257    1.1885   -1.1882 H         1 <0>         0.3842
@<TRIPOS>BOND
     1    1    2 1
     2    1   30 1
     3    1   31 1
     4    1   32 1
     5    2    8 1
     6    2    3 2
     7    3    4 1
     8    3   33 1
     9    4    5 2
    10    4    6 1
    11    6    7 1
    12    7   12 ar
    13    7    8 ar
    14    8    9 ar
    15    9   10 ar
    16    9   34 1
    17   10   11 ar
    18   10   35 1
    19   11   12 ar
    20   11   13 1
    21   12   36 1
    22   13   14 1
    23   14   15 1
    24   14   24 1
    25   14   16 1
    26   16   17 1
    27   16   18 1
    28   16   29 1
    29   18   19 1
    30   18   20 1
    31   18   28 1
    32   20   21 1
    33   20   22 1
    34   20   27 1
    35   22   23 1
    36   22   24 1
    37   22   25 1
    38   25   26 1
    39   25   37 1
    40   25   38 1
    41   26   39 1
    42   27   40 1
    43   28   41 1
    44   29   42 1
@<TRIPOS>MOLECULE
ZINC05993325
   34    34     0     0     0
SMALL
USER_CHARGES

@<TRIPOS>ATOM
      1 C1         -0.0187    1.5258    0.0104 C.3       1 <0>        -0.1670
      2 C2          0.0021   -0.0041    0.0020 C.3       1 <0>         0.1511
      3 C3         -1.4333   -0.5336    0.0129 C.3       1 <0>        -0.1617
      4 N1          0.6878   -0.4765   -1.2033 N.am      1 <0>        -0.7316
      5 C4          2.0310   -0.5870   -1.2149 C.2       1 <0>         0.6951
      6 O1          2.6733   -0.2946   -0.2255 O.2       1 <0>        -0.5243
      7 N2          2.6618   -1.0216   -2.3238 N.am      1 <0>        -0.6853
      8 C5          4.0050   -1.1321   -2.3354 C.2       1 <0>         0.5427
      9 O2          4.6458   -0.8405   -1.3484 O.2       1 <0>        -0.4472
     10 C6          4.7104   -1.6181   -3.5753 C.3       1 <0>        -0.1651
     11 S1          6.4993   -1.6565   -3.2774 S.3       1 <0>         0.1404
     12 C7          7.1724   -2.2375   -4.7986 C.2       1 <0>         0.2000
     13 N3          6.4987   -2.5533   -5.8803 N.2       1 <0>        -0.2823
     14 N4          7.3077   -2.9391   -6.8014 N.2       1 <0>        -0.1926
     15 C8          8.5352   -2.8930   -6.3668 C.2       1 <0>         0.0444
     16 N5          8.4937   -2.4389   -5.0775 N.pl3     1 <0>        -0.2789
     17 N6          9.5539   -2.2328   -4.2411 N.3       1 <0>        -0.5811
     18 C9          9.7720   -3.2651   -7.1432 C.3       1 <0>         0.5712
     19 F1          9.4613   -3.3452   -8.5049 F         1 <0>        -0.1383
     20 F2         10.7569   -2.2912   -6.9462 F         1 <0>        -0.1649
     21 F3         10.2461   -4.5042   -6.6994 F         1 <0>        -0.1590
     22 H1          1.0039    1.9031    0.0027 H         1 <0>         0.0619
     23 H2         -0.5459    1.8868   -0.8726 H         1 <0>         0.0576
     24 H3         -0.5289    1.8773    0.9072 H         1 <0>         0.0695
     25 H4          0.5293   -0.3651    0.8851 H         1 <0>         0.0920
     26 H5         -1.9605   -0.1726   -0.8702 H         1 <0>         0.0626
     27 H6         -1.4185   -1.6235    0.0069 H         1 <0>         0.0632
     28 H7         -1.9435   -0.1821    0.9097 H         1 <0>         0.0773
     29 H8          0.1751   -0.7099   -1.9930 H         1 <0>         0.3991
     30 H9          2.1491   -1.2550   -3.1135 H         1 <0>         0.4139
     31 H10         4.3615   -2.6208   -3.8223 H         1 <0>         0.1369
     32 H11         4.4944   -0.9438   -4.4041 H         1 <0>         0.1376
     33 H12         9.7645   -3.0658   -3.7122 H         1 <0>         0.3776
     34 H13        10.3629   -1.9161   -4.7542 H         1 <0>         0.3851
@<TRIPOS>BOND
     1    1    2 1
     2    1   22 1
     3    1   23 1
     4    1   24 1
     5    2    3 1
     6    2    4 1
     7    2   25 1
     8    3   26 1
     9    3   27 1
    10    3   28 1
    11    4    5 am
    12    4   29 1
    13    5    6 2
    14    5    7 am
    15    7    8 am
    16    7   30 1
    17    8    9 2
    18    8   10 1
    19   10   11 1
    20   10   31 1
    21   10   32 1
    22   11   12 1
    23   12   16 1
    24   12   13 2
    25   13   14 1
    26   14   15 2
    27   15   16 1
    28   15   18 1
    29   16   17 1
    30   17   33 1
    31   17   34 1
    32   18   19 1
    33   18   20 1
    34   18   21 1
@<TRIPOS>MOLECULE
ZINC48858509
   38    40     0     0     0
SMALL
USER_CHARGES

@<TRIPOS>ATOM
      1 C1         -4.0888   -3.5254    1.9831 C.2       1 <0>         0.0303
      2 C2         -4.7445   -4.4023    2.7423 C.2       1 <0>        -0.1847
      3 S1         -6.2172   -3.4880    3.1727 S.3       1 <0>         0.1625
      4 C3         -5.8312   -1.9924    2.2928 C.2       1 <0>         0.2422
      5 N1         -4.6162   -2.2781    1.7304 N.pl3     1 <0>        -0.3828
      6 C4         -4.2695   -1.1235    1.0230 C.2       1 <0>        -0.6740
      7 C5         -5.2647   -0.2286    1.1911 C.2       1 <0>         0.4522
      8 N2         -6.2056   -0.7860    1.9721 N.2       1 <0>        -0.4711
      9 N3         -5.3094    1.0634    0.6447 N.pl3     1 <0>        -0.5580
     10 N4         -6.3216    1.9148    0.9864 N.3       1 <0>        -0.5933
     11 S2         -2.7991   -0.8808    0.0828 S.o2      1 <0>         2.7118
     12 O1         -2.3927    0.4627    0.3041 O.2       1 <0>        -0.9546
     13 O2         -1.9528   -1.9882    0.3595 O.2       1 <0>        -0.9203
     14 N5         -3.2164   -0.9919   -1.5159 N.pl3     1 <0>        -0.9900
     15 C6         -3.3011    0.2127   -2.3529 C.3       1 <0>         0.1096
     16 C7         -2.4263    0.0130   -3.5945 C.3       1 <0>        -0.1312
     17 C8         -2.8432   -1.2767   -4.3052 C.3       1 <0>        -0.1199
     18 C9         -2.6318   -2.4685   -3.3686 C.3       1 <0>        -0.1233
     19 C10        -3.5029   -2.2975   -2.1259 C.3       1 <0>         0.1610
     20 H1         -4.5540   -2.3449   -2.4108 H         1 <0>         0.0844
     21 C11        -3.1891   -3.4112   -1.1249 C.3       1 <0>         0.0467
     22 O3         -1.7728   -3.5557   -1.0016 O.3       1 <0>        -0.5240
     23 H2         -3.1303   -3.7942    1.5643 H         1 <0>         0.1895
     24 H3         -4.4595   -5.4052    3.0241 H         1 <0>         0.2241
     25 H4         -4.6217    1.3518    0.0244 H         1 <0>         0.4180
     26 H5         -6.2212    2.8025    0.5173 H         1 <0>         0.3625
     27 H6         -7.2218    1.5028    0.7918 H         1 <0>         0.3463
     28 H7         -4.3353    0.3746   -2.6567 H         1 <0>         0.0688
     29 H8         -2.9444    1.0750   -1.7895 H         1 <0>         0.0958
     30 H9         -2.5551    0.8586   -4.2702 H         1 <0>         0.0781
     31 H10        -1.3807   -0.0582   -3.2952 H         1 <0>         0.0715
     32 H11        -3.8956   -1.2148   -4.5823 H         1 <0>         0.0624
     33 H12        -2.2388   -1.4085   -5.2026 H         1 <0>         0.0689
     34 H13        -2.9068   -3.3890   -3.8834 H         1 <0>         0.0734
     35 H14        -1.5842   -2.5163   -3.0714 H         1 <0>         0.0861
     36 H15        -3.6143   -3.1574   -0.1539 H         1 <0>         0.0399
     37 H16        -3.6207   -4.3482   -1.4768 H         1 <0>         0.0647
     38 H17        -1.5001   -4.3020   -0.4505 H         1 <0>         0.3760
@<TRIPOS>BOND
     1    1    5 1
     2    1    2 2
     3    1   23 1
     4    2    3 1
     5    2   24 1
     6    3    4 1
     7    4    8 2
     8    4    5 1
     9    5    6 1
    10    6    7 2
    11    6   11 1
    12    7    8 1
    13    7    9 1
    14    9   10 1
    15    9   25 1
    16   10   26 1
    17   10   27 1
    18   11   12 2
    19   11   13 2
    20   11   14 1
    21   14   19 1
    22   14   15 1
    23   15   16 1
    24   15   28 1
    25   15   29 1
    26   16   17 1
    27   16   30 1
    28   16   31 1
    29   17   18 1
    30   17   32 1
    31   17   33 1
    32   18   19 1
    33   18   34 1
    34   18   35 1
    35   19   20 1
    36   19   21 1
    37   21   22 1
    38   21   36 1
    39   21   37 1
    40   22   38 1
@<TRIPOS>MOLECULE
ZINC39953302
   43    46     0     0     0
SMALL
USER_CHARGES

@<TRIPOS>ATOM
      1 C1         -0.0184    1.5028    0.0103 C.3       1 <0>        -0.1244
      2 C2          0.0021   -0.0041    0.0020 C.2       1 <0>         0.2942
      3 N1          0.0060   -0.6656   -1.1126 N.2       1 <0>        -0.5203
      4 C3          0.0244   -2.0011   -1.1633 C.2       1 <0>         0.6629
      5 O1          0.0264   -2.5231   -2.2611 O.2       1 <0>        -0.4679
      6 N2          0.0411   -2.8062   -0.0933 N.am      1 <0>        -0.6872
      7 C4          0.0401   -2.3037    1.1619 C.2       1 <0>         0.5423
      8 O2          0.0552   -3.0273    2.1346 O.2       1 <0>        -0.4600
      9 C5          0.0251   -0.7920    1.2973 C.3       1 <0>        -0.1003
     10 H1         -0.8544   -0.5150    1.8786 H         1 <0>         0.1670
     11 C6          1.2445   -0.3750    2.0784 C.2       1 <0>         0.0844
     12 N3          1.1135    0.1392    3.2434 N.2       1 <0>        -0.1943
     13 N4          2.2471    0.5269    3.9696 N.pl3     1 <0>        -0.4582
     14 C7          3.6446    0.4127    3.5262 C.3       1 <0>         0.0174
     15 C8          4.4575    0.9699    4.6758 C.2       1 <0>         0.4174
     16 O3          5.6689    1.0691    4.7372 O.2       1 <0>        -0.4507
     17 C9          3.5359    1.3457    5.6465 C.2       1 <0>        -0.4478
     18 C10         2.2556    1.0851    5.2158 C.2       1 <0>         0.5612
     19 N5          1.1292    1.3503    5.9475 N.pl3     1 <0>        -0.8212
     20 C11         3.8887    1.9560    6.9784 C.3       1 <0>         0.3029
     21 H2          2.9913    2.1731    7.5577 H         1 <0>         0.0954
     22 N6          4.8066    1.0896    7.7303 N.pl3     1 <0>        -0.7316
     23 C12         6.0675    1.5990    8.0372 C.ar      1 <0>         0.1931
     24 C13         7.0741    0.9197    8.7466 C.ar      1 <0>        -0.1678
     25 C14         8.2896    1.5112    9.0001 C.ar      1 <0>        -0.0776
     26 C15         8.5636    2.7951    8.5661 C.ar      1 <0>        -0.1553
     27 C16         7.5909    3.4881    7.8649 C.ar      1 <0>        -0.0454
     28 C17         6.3748    2.8949    7.6114 C.ar      1 <0>        -0.1288
     29 S1          4.9174    3.4635    6.7630 S.3       1 <0>        -0.1499
     30 H3          1.0042    1.8801    0.0026 H         1 <0>         0.1094
     31 H4         -0.5455    1.8639   -0.8728 H         1 <0>         0.1088
     32 H5         -0.5286    1.8543    0.9071 H         1 <0>         0.0985
     33 H6          0.0538   -3.7677   -0.2211 H         1 <0>         0.4277
     34 H7          2.2290   -0.5099    1.6554 H         1 <0>         0.1361
     35 H8          3.9029   -0.6313    3.3490 H         1 <0>         0.1125
     36 H9          3.8067    1.0035    2.6247 H         1 <0>         0.1157
     37 H10         0.2546    1.1393    5.5849 H         1 <0>         0.4160
     38 H11         1.2057    1.7492    6.8283 H         1 <0>         0.4240
     39 H12         4.5448    0.1964    8.0034 H         1 <0>         0.4067
     40 H13         6.8891   -0.0843    9.0990 H         1 <0>         0.1170
     41 H14         9.0426    0.9638    9.5476 H         1 <0>         0.1237
     42 H15         9.5211    3.2506    8.7710 H         1 <0>         0.1287
     43 H16         7.7862    4.4918    7.5173 H         1 <0>         0.1254
@<TRIPOS>BOND
     1    1    2 1
     2    1   30 1
     3    1   31 1
     4    1   32 1
     5    2    9 1
     6    2    3 2
     7    3    4 1
     8    4    5 2
     9    4    6 am
    10    6    7 am
    11    6   33 1
    12    7    8 2
    13    7    9 1
    14    9   10 1
    15    9   11 1
    16   11   12 2
    17   11   34 1
    18   12   13 1
    19   13   18 1
    20   13   14 1
    21   14   15 1
    22   14   35 1
    23   14   36 1
    24   15   16 2
    25   15   17 1
    26   17   18 2
    27   17   20 1
    28   18   19 1
    29   19   37 1
    30   19   38 1
    31   20   21 1
    32   20   29 1
    33   20   22 1
    34   22   23 1
    35   22   39 1
    36   23   28 ar
    37   23   24 ar
    38   24   25 ar
    39   24   40 1
    40   25   26 ar
    41   25   41 1
    42   26   27 ar
    43   26   42 1
    44   27   28 ar
    45   27   43 1
    46   28   29 1
@<TRIPOS>MOLECULE
ZINC67245428
   47    50     0     0     0
SMALL
USER_CHARGES

@<TRIPOS>ATOM
      1 C1         -0.0164    1.3571    0.0095 C.ar      1 <0>        -0.1012
      2 C2          1.1699    2.0898    0.0021 C.ar      1 <0>        -0.1000
      3 C3          2.3792    1.4680   -0.0132 C.ar      1 <0>        -0.0849
      4 C4          2.4412    0.0611   -0.0214 C.ar      1 <0>         0.1247
      5 C5          1.2317   -0.6821   -0.0134 C.ar      1 <0>        -0.0827
      6 C6          0.0021   -0.0041    0.0020 C.ar      1 <0>        -0.1023
      7 C7          1.2911   -2.0880   -0.0215 C.ar      1 <0>        -0.0561
      8 C8          2.5200   -2.6827   -0.0368 C.ar      1 <0>        -0.1223
      9 C9          3.6777   -1.8913   -0.0441 C.ar      1 <0>         0.1200
     10 N1          3.6125   -0.5739   -0.0360 N.ar      1 <0>        -0.4422
     11 C10         5.0057   -2.5506   -0.0603 C.2       1 <0>         0.5738
     12 O1          5.0818   -3.7632   -0.0671 O.2       1 <0>        -0.5285
     13 N2          6.1283   -1.8049   -0.0675 N.am      1 <0>        -0.5022
     14 N3          7.3830   -2.4279   -0.0828 N.am      1 <0>        -0.5233
     15 C11         8.5056   -1.6821   -0.0900 C.2       1 <0>         0.5208
     16 O2          8.4296   -0.4717   -0.0832 O.2       1 <0>        -0.5253
     17 C12         9.8554   -2.3522   -0.1065 C.3       1 <0>        -0.0915
     18 C13        10.0032   -3.2318    1.1368 C.3       1 <0>        -0.1242
     19 C14        11.3696   -3.9215    1.1127 C.3       1 <0>        -0.1101
     20 C15        12.4727   -2.8696    1.0799 C.3       1 <0>         0.1198
     21 C16        12.3239   -1.9685   -0.1410 C.3       1 <0>        -0.1121
     22 C17        10.9536   -1.2868   -0.1118 C.3       1 <0>        -0.1085
     23 C18        12.4563   -2.0475    2.3480 C.2       1 <0>         0.5314
     24 O3         11.5559   -1.3456    2.7559 O.2       1 <0>        -0.4499
     25 N4         13.6547   -2.2592    2.9304 N.am      1 <0>        -0.6813
     26 C19        14.4131   -3.0932    2.2086 C.2       1 <0>         0.7042
     27 O4         15.5345   -3.4356    2.5288 O.2       1 <0>        -0.5391
     28 N5         13.7942   -3.5104    1.0876 N.am      1 <0>        -0.7180
     29 H1         -0.9631    1.8767    0.0259 H         1 <0>         0.1327
     30 H2          1.1277    3.1690    0.0083 H         1 <0>         0.1352
     31 H3          3.2885    2.0508   -0.0195 H         1 <0>         0.1410
     32 H4         -0.9241   -0.5596    0.0082 H         1 <0>         0.1357
     33 H5          0.3884   -2.6808   -0.0153 H         1 <0>         0.1506
     34 H6          2.6003   -3.7597   -0.0430 H         1 <0>         0.1538
     35 H7          6.0675   -0.8368   -0.0620 H         1 <0>         0.4435
     36 H8          7.4439   -3.3959   -0.0883 H         1 <0>         0.4320
     37 H9          9.9436   -2.9694   -1.0006 H         1 <0>         0.1089
     38 H10         9.9238   -2.6136    2.0310 H         1 <0>         0.0916
     39 H11         9.2157   -3.9854    1.1447 H         1 <0>         0.0819
     40 H12        11.4813   -4.5369    2.0054 H         1 <0>         0.0826
     41 H13        11.4425   -4.5517    0.2264 H         1 <0>         0.0933
     42 H14        13.1069   -1.2103   -0.1302 H         1 <0>         0.0823
     43 H15        12.4119   -2.5678   -1.0473 H         1 <0>         0.0911
     44 H16        10.8430   -0.6552   -0.9932 H         1 <0>         0.0860
     45 H17        10.8710   -0.6751    0.7866 H         1 <0>         0.0929
     46 H18        13.9324   -1.8566    3.7680 H         1 <0>         0.4339
     47 H19        14.1506   -4.1148    0.4179 H         1 <0>         0.4423
@<TRIPOS>BOND
     1    1    6 ar
     2    1    2 ar
     3    1   29 1
     4    2    3 ar
     5    2   30 1
     6    3    4 ar
     7    3   31 1
     8    4   10 ar
     9    4    5 ar
    10    5    6 ar
    11    5    7 ar
    12    6   32 1
    13    7    8 ar
    14    7   33 1
    15    8    9 ar
    16    8   34 1
    17    9   10 ar
    18    9   11 1
    19   11   12 2
    20   11   13 am
    21   13   14 1
    22   13   35 1
    23   14   15 am
    24   14   36 1
    25   15   16 2
    26   15   17 1
    27   17   22 1
    28   17   18 1
    29   17   37 1
    30   18   19 1
    31   18   38 1
    32   18   39 1
    33   19   20 1
    34   19   40 1
    35   19   41 1
    36   20   28 1
    37   20   21 1
    38   20   23 1
    39   21   22 1
    40   21   42 1
    41   21   43 1
    42   22   44 1
    43   22   45 1
    44   23   24 2
    45   23   25 am
    46   25   26 am
    47   25   46 1
    48   26   27 2
    49   26   28 am
    50   28   47 1
@<TRIPOS>MOLECULE
ZINC19867465
   51    53     0     0     0
SMALL
USER_CHARGES
(5S)-2-amino-4-(2-anilino-2-oxo-ethyl)sulfanyl-1-cyano-3-azaspiro[5.5]undeca-1,3-diene-5-carboxamide
@<TRIPOS>ATOM
      1 C1          7.2227   -7.3622   -1.7216 C.ar      1 <0>        -0.1328
      2 C2          7.2889   -6.4582   -0.6773 C.ar      1 <0>        -0.1017
      3 C3          6.2326   -5.6020   -0.4351 C.ar      1 <0>        -0.1222
      4 C4          5.1031   -5.6497   -1.2416 C.ar      1 <0>         0.1441
      5 C5          5.0373   -6.5627   -2.2859 C.ar      1 <0>        -0.1434
      6 C6          6.0992   -7.4125   -2.5262 C.ar      1 <0>        -0.1020
      7 N1          4.0312   -4.7836   -0.9989 N.am      1 <0>        -0.6785
      8 C7          4.2631   -3.5321   -0.5559 C.2       1 <0>         0.5319
      9 O1          5.3934   -3.1833   -0.2878 O.2       1 <0>        -0.5082
     10 C8          3.1180   -2.5659   -0.3936 C.3       1 <0>        -0.1586
     11 S1          3.7472   -0.9809    0.2129 S.3       1 <0>         0.1080
     12 C9          2.2845   -0.0961    0.3053 C.2       1 <0>         0.1808
     13 N2          1.1651   -0.6721   -0.0360 N.2       1 <0>        -0.5224
     14 C10        -0.0069   -0.0142   -0.0259 C.2       1 <0>         0.4593
     15 C11        -0.0429    1.3635    0.0237 C.2       1 <0>        -0.2602
     16 C12         1.2496    2.1413    0.0337 C.3       1 <0>         0.0551
     17 C13         2.3137    1.3333    0.7787 C.3       1 <0>        -0.0995
     18 H1          3.3129    1.7523    0.5888 H         1 <0>         0.1235
     19 C14         2.0319    1.3780    2.2585 C.2       1 <0>         0.5369
     20 O2          1.0238    0.8679    2.6995 O.2       1 <0>        -0.5278
     21 N3          2.9001    1.9848    3.0918 N.am      1 <0>        -0.8718
     22 C15         1.0350    3.4802    0.7410 C.3       1 <0>        -0.1113
     23 C16         2.3475    4.2667    0.7527 C.3       1 <0>        -0.1202
     24 C17         2.8056    4.5153   -0.6857 C.3       1 <0>        -0.1232
     25 C18         3.0209    3.1753   -1.3921 C.3       1 <0>        -0.1249
     26 C19         1.7084    2.3887   -1.4040 C.3       1 <0>        -0.1106
     27 C20        -1.2985    2.0511    0.0594 C.1       1 <0>         0.2790
     28 N4         -2.2946    2.5965    0.0878 N.1       1 <0>        -0.4671
     29 N5         -1.1884   -0.7259   -0.0652 N.pl3     1 <0>        -0.8569
     30 H2          8.0500   -8.0306   -1.9089 H         1 <0>         0.1240
     31 H3          8.1678   -6.4213   -0.0507 H         1 <0>         0.1263
     32 H4          6.2851   -4.8959    0.3804 H         1 <0>         0.1384
     33 H5          4.1584   -6.6053   -2.9122 H         1 <0>         0.1257
     34 H6          6.0503   -8.1200   -3.3408 H         1 <0>         0.1267
     35 H7          2.9993   -5.1242   -1.1697 H         1 <0>         0.4388
     36 H8          2.6237   -2.4167   -1.3649 H         1 <0>         0.1349
     37 H9          2.3940   -2.9731    0.3275 H         1 <0>         0.1335
     38 H10         2.6944    2.0174    4.1719 H         1 <0>         0.4273
     39 H11         3.8144    2.4474    2.6918 H         1 <0>         0.4196
     40 H12         0.2660    4.0578    0.2071 H         1 <0>         0.0715
     41 H13         0.7061    3.3001    1.7751 H         1 <0>         0.0689
     42 H14         2.1930    5.2304    1.2601 H         1 <0>         0.0683
     43 H15         3.1160    3.6896    1.2878 H         1 <0>         0.0600
     44 H16         2.0369    5.0922   -1.2208 H         1 <0>         0.0650
     45 H17         3.7490    5.0809   -0.6775 H         1 <0>         0.0667
     46 H18         3.3504    3.3547   -2.4261 H         1 <0>         0.0703
     47 H19         3.7896    2.5982   -0.8573 H         1 <0>         0.0646
     48 H20         1.8632    1.4246   -1.9105 H         1 <0>         0.0633
     49 H21         0.9401    2.9653   -1.9400 H         1 <0>         0.0743
     50 H22        -2.1513   -0.1942   -0.0572 H         1 <0>         0.4322
     51 H23        -1.1674   -1.8250   -0.1045 H         1 <0>         0.4244
@<TRIPOS>BOND
     1    1    6 ar
     2    1    2 ar
     3    1   30 1
     4    2    3 ar
     5    2   31 1
     6    3    4 ar
     7    3   32 1
     8    4    5 ar
     9    4    7 1
    10    5    6 ar
    11    5   33 1
    12    6   34 1
    13    7    8 am
    14    7   35 1
    15    8    9 2
    16    8   10 1
    17   10   11 1
    18   10   36 1
    19   10   37 1
    20   11   12 1
    21   12   17 1
    22   12   13 2
    23   13   14 1
    24   14   15 2
    25   14   29 1
    26   15   16 1
    27   15   27 1
    28   16   26 1
    29   16   17 1
    30   16   22 1
    31   17   18 1
    32   17   19 1
    33   19   20 2
    34   19   21 am
    35   21   38 1
    36   21   39 1
    37   22   23 1
    38   22   40 1
    39   22   41 1
    40   23   24 1
    41   23   42 1
    42   23   43 1
    43   24   25 1
    44   24   44 1
    45   24   45 1
    46   25   26 1
    47   25   46 1
    48   25   47 1
    49   26   48 1
    50   26   49 1
    51   27   28 3
    52   29   50 1
    53   29   51 1
@<TRIPOS>MOLECULE
ZINC39558237
   41    43     0     0     0
SMALL
USER_CHARGES

@<TRIPOS>ATOM
      1 C1         -0.0169    1.3625    0.0359 C.ar      1 <0>        -0.0860
      2 C2          1.1647    2.0925    0.0244 C.ar      1 <0>        -0.1125
      3 C3          2.3854    1.4543   -0.0016 C.ar      1 <0>        -0.0526
      4 C4          2.4288    0.0608   -0.0160 C.ar      1 <0>        -0.1265
      5 C5          1.2240   -0.6785   -0.0038 C.ar      1 <0>        -0.0538
      6 C6          0.0017   -0.0042    0.0222 C.ar      1 <0>        -0.1023
      7 C7          1.2997   -2.1394   -0.0199 C.2       1 <0>         0.1162
      8 N1          2.4571   -2.7302   -0.0444 N.2       1 <0>        -0.1659
      9 N2          3.6620   -2.0270   -0.0569 N.am      1 <0>        -0.5360
     10 H1          4.4967   -2.5209   -0.0752 H         1 <0>         0.4375
     11 C8          3.6971   -0.6782   -0.0442 C.2       1 <0>         0.5257
     12 O1          4.7609   -0.0849   -0.0559 O.2       1 <0>        -0.5213
     13 C9          0.0354   -2.9595   -0.0075 C.3       1 <0>        -0.0751
     14 C10         0.3869   -4.4248   -0.0282 C.2       1 <0>         0.5067
     15 O2          1.5496   -4.7692   -0.0507 O.2       1 <0>        -0.4744
     16 N3         -0.5908   -5.3524   -0.0216 N.am      1 <0>        -0.6757
     17 C11        -0.2688   -6.7091   -0.1383 C.ar      1 <0>         0.1611
     18 C12        -1.1106   -7.5662   -0.8364 C.ar      1 <0>        -0.1489
     19 C13        -0.7938   -8.9058   -0.9517 C.ar      1 <0>        -0.0771
     20 C14         0.3608   -9.3980   -0.3740 C.ar      1 <0>        -0.1611
     21 C15         1.2071   -8.5462    0.3250 C.ar      1 <0>         0.1513
     22 C16         0.8941   -7.1986    0.4381 C.ar      1 <0>        -0.1343
     23 N4          2.3742   -9.0443    0.9088 N.pl3     1 <0>        -1.0585
     24 S1          3.3528  -10.0727    0.0560 S.o2      1 <0>         2.8009
     25 O3          4.4557  -10.3762    0.8990 O.2       1 <0>        -0.9762
     26 O4          2.5093  -11.0791   -0.4870 O.2       1 <0>        -0.9732
     27 N5          3.9589   -9.2199   -1.2276 N.pl3     1 <0>        -1.2581
     28 H2         -0.9635    1.8820    0.0605 H         1 <0>         0.1366
     29 H3          1.1262    3.1717    0.0356 H         1 <0>         0.1375
     30 H4          3.3003    2.0281   -0.0111 H         1 <0>         0.1438
     31 H5         -0.9245   -0.5596    0.0310 H         1 <0>         0.1404
     32 H6         -0.5344   -2.7352    0.8942 H         1 <0>         0.1273
     33 H7         -0.5635   -2.7171   -0.8854 H         1 <0>         0.1278
     34 H8         -1.5177   -5.0796    0.0639 H         1 <0>         0.4134
     35 H9         -2.0139   -7.1846   -1.2891 H         1 <0>         0.1304
     36 H10        -1.4503   -9.5700   -1.4943 H         1 <0>         0.1358
     37 H11         0.6055  -10.4459   -0.4656 H         1 <0>         0.1592
     38 H12         1.5525   -6.5335    0.9772 H         1 <0>         0.1478
     39 H13         2.6114   -8.7879    1.8137 H         1 <0>         0.4295
     40 H14         3.7119   -8.2902   -1.3523 H         1 <0>         0.4178
     41 H15         4.5609   -9.6501   -1.8549 H         1 <0>         0.4225
@<TRIPOS>BOND
     1    1    6 ar
     2    1    2 ar
     3    1   28 1
     4    2    3 ar
     5    2   29 1
     6    3    4 ar
     7    3   30 1
     8    4   11 1
     9    4    5 ar
    10    5    6 ar
    11    5    7 1
    12    6   31 1
    13    7    8 2
    14    7   13 1
    15    8    9 1
    16    9   10 1
    17    9   11 am
    18   11   12 2
    19   13   14 1
    20   13   32 1
    21   13   33 1
    22   14   15 2
    23   14   16 am
    24   16   17 1
    25   16   34 1
    26   17   22 ar
    27   17   18 ar
    28   18   19 ar
    29   18   35 1
    30   19   20 ar
    31   19   36 1
    32   20   21 ar
    33   20   37 1
    34   21   22 ar
    35   21   23 1
    36   22   38 1
    37   23   24 1
    38   23   39 1
    39   24   25 2
    40   24   26 2
    41   24   27 1
    42   27   40 1
    43   27   41 1
@<TRIPOS>MOLECULE
ZINC40760424
   45    47     0     0     0
SMALL
USER_CHARGES

@<TRIPOS>ATOM
      1 C1         -0.0187    1.5258    0.0104 C.3       1 <0>        -0.1569
      2 C2          0.0021   -0.0041    0.0020 C.3       1 <0>         0.1990
      3 H1         -1.0205   -0.3814    0.0098 H         1 <0>         0.1009
      4 C3          0.7074   -0.4901   -1.2379 C.ar      1 <0>        -0.0931
      5 C4          2.0889   -0.5108   -1.2839 C.ar      1 <0>        -0.1173
      6 C5          2.7359   -0.9566   -2.4212 C.ar      1 <0>        -0.1156
      7 C6          2.0015   -1.3821   -3.5123 C.ar      1 <0>        -0.1190
      8 C7          0.6201   -1.3622   -3.4659 C.ar      1 <0>        -0.1145
      9 C8         -0.0269   -0.9205   -2.3270 C.ar      1 <0>        -0.1068
     10 N1          0.7106   -0.4894    1.1889 N.pl3     1 <0>        -0.7096
     11 C9          0.0307   -0.6380    2.3918 C.ar      1 <0>         0.4156
     12 C10         0.6966   -1.0940    3.5309 C.ar      1 <0>         0.0025
     13 C11        -0.0335   -1.2247    4.7132 C.ar      1 <0>         0.3999
     14 N2         -1.3272   -0.9119    4.7100 N.ar      1 <0>        -0.5825
     15 C12        -1.9179   -0.4847    3.6124 C.ar      1 <0>         0.3337
     16 N3         -1.2641   -0.3424    2.4771 N.ar      1 <0>        -0.5682
     17 N4          0.5807   -1.6749    5.8758 N.pl3     1 <0>        -0.5134
     18 N5         -0.1624   -1.8020    7.0567 N.am      1 <0>        -0.5022
     19 C13         0.4332   -2.2386    8.1841 C.2       1 <0>         0.5633
     20 O1          1.6152   -2.5220    8.1764 O.2       1 <0>        -0.5389
     21 C14        -0.3510   -2.3727    9.4301 C.ar      1 <0>        -0.1824
     22 C15         0.2573   -2.8196   10.6095 C.ar      1 <0>        -0.0113
     23 C16        -0.5209   -2.9277   11.7484 C.ar      1 <0>        -0.1770
     24 C17        -1.8622   -2.5940   11.6862 C.ar      1 <0>         0.1277
     25 N6         -2.4085   -2.1760   10.5605 N.ar      1 <0>        -0.4836
     26 C18        -1.7084   -2.0506    9.4522 C.ar      1 <0>         0.1382
     27 N7          2.0638   -1.4131    3.4882 N.pl3     1 <0>        -0.8766
     28 H2          1.0039    1.9031    0.0027 H         1 <0>         0.0544
     29 H3         -0.5459    1.8868   -0.8726 H         1 <0>         0.0666
     30 H4         -0.5289    1.8773    0.9072 H         1 <0>         0.0670
     31 H5          2.6626   -0.1783   -0.4315 H         1 <0>         0.1171
     32 H6          3.8152   -0.9721   -2.4575 H         1 <0>         0.1234
     33 H7          2.5070   -1.7297   -4.4012 H         1 <0>         0.1232
     34 H8          0.0463   -1.6944   -4.3185 H         1 <0>         0.1250
     35 H9         -1.1062   -0.9085   -2.2894 H         1 <0>         0.1258
     36 H10         1.6544   -0.7070    1.1351 H         1 <0>         0.4023
     37 H11        -2.9692   -0.2397    3.6452 H         1 <0>         0.1981
     38 H12         1.5240   -1.9011    5.8697 H         1 <0>         0.4377
     39 H13        -1.1057   -1.5758    7.0628 H         1 <0>         0.4332
     40 H14         1.3067   -3.0738   10.6296 H         1 <0>         0.1501
     41 H15        -0.0860   -3.2693   12.6760 H         1 <0>         0.1473
     42 H16        -2.4719   -2.6774   12.5737 H         1 <0>         0.1655
     43 H17        -2.1902   -1.7003    8.5513 H         1 <0>         0.1603
     44 H18         2.5585   -1.3177    2.6592 H         1 <0>         0.3955
     45 H19         2.5134   -1.7289    4.2876 H         1 <0>         0.3955
@<TRIPOS>BOND
     1    1    2 1
     2    1   28 1
     3    1   29 1
     4    1   30 1
     5    2    3 1
     6    2    4 1
     7    2   10 1
     8    4    9 ar
     9    4    5 ar
    10    5    6 ar
    11    5   31 1
    12    6    7 ar
    13    6   32 1
    14    7    8 ar
    15    7   33 1
    16    8    9 ar
    17    8   34 1
    18    9   35 1
    19   10   11 1
    20   10   36 1
    21   11   16 ar
    22   11   12 ar
    23   12   13 ar
    24   12   27 1
    25   13   14 ar
    26   13   17 1
    27   14   15 ar
    28   15   16 ar
    29   15   37 1
    30   17   18 1
    31   17   38 1
    32   18   19 am
    33   18   39 1
    34   19   20 2
    35   19   21 1
    36   21   26 ar
    37   21   22 ar
    38   22   23 ar
    39   22   40 1
    40   23   24 ar
    41   23   41 1
    42   24   25 ar
    43   24   42 1
    44   25   26 ar
    45   26   43 1
    46   27   44 1
    47   27   45 1
@<TRIPOS>MOLECULE
ZINC49244056
   46    47     0     0     0
SMALL
USER_CHARGES

@<TRIPOS>ATOM
      1 C1         -0.0167    1.3781    0.0096 C.ar      1 <0>        -0.1343
      2 C2          1.1709    2.0855    0.0021 C.ar      1 <0>        -0.0151
      3 C3          2.3773    1.4107   -0.0130 C.ar      1 <0>        -0.6767
      4 C4          2.3960    0.0285   -0.0201 C.ar      1 <0>        -0.0151
      5 C5          1.2085   -0.6789   -0.0117 C.ar      1 <0>        -0.1343
      6 C6          0.0021   -0.0041    0.0020 C.ar      1 <0>        -0.0222
      7 C7         -1.2926   -0.7753    0.0107 C.3       1 <0>        -0.1012
      8 C8         -1.7450   -1.0285   -1.4288 C.3       1 <0>         0.1432
      9 N1         -3.0037   -1.7782   -1.4204 N.am      1 <0>        -0.7466
     10 C9         -3.5942   -2.1168   -2.5836 C.2       1 <0>         0.7044
     11 O1         -3.0823   -1.8000   -3.6400 O.2       1 <0>        -0.5867
     12 N2         -4.7520   -2.8065   -2.5759 N.am      1 <0>        -0.7414
     13 C10        -5.3939   -3.1745   -3.8403 C.3       1 <0>         0.1103
     14 C11        -6.6835   -3.9458   -3.5521 C.3       1 <0>         0.1417
     15 H1         -7.3594   -3.3190   -2.9704 H         1 <0>         0.1217
     16 C12        -7.3437   -4.3244   -4.8528 C.ar      1 <0>        -0.1019
     17 C13        -6.9626   -5.4794   -5.5101 C.ar      1 <0>        -0.0889
     18 C14        -7.5667   -5.8288   -6.7031 C.ar      1 <0>        -0.1193
     19 C15        -8.5546   -5.0222   -7.2408 C.ar      1 <0>         0.0736
     20 C16        -8.9372   -3.8641   -6.5814 C.ar      1 <0>         0.0730
     21 C17        -8.3336   -3.5196   -5.3843 C.ar      1 <0>        -0.1121
     22 F1         -9.9010   -3.0750   -7.1045 F         1 <0>        -0.1241
     23 F2         -9.1453   -5.3627   -8.4072 F         1 <0>        -0.1246
     24 O2         -6.3756   -5.1289   -2.8121 O.3       1 <0>        -0.5468
     25 S1          3.8911    2.3124   -0.0238 S.o2      1 <0>         2.7010
     26 O3          4.8717    1.4529   -0.5884 O.2       1 <0>        -0.9621
     27 O4          3.5973    3.5927   -0.5658 O.2       1 <0>        -0.9621
     28 N3          4.3274    2.5556    1.5551 N.pl3     1 <0>        -1.2499
     29 H2         -0.9591    1.9053    0.0259 H         1 <0>         0.1361
     30 H3          1.1563    3.1654    0.0076 H         1 <0>         0.1450
     31 H4          3.3385   -0.4987   -0.0326 H         1 <0>         0.1451
     32 H5          1.2231   -1.7588   -0.0179 H         1 <0>         0.1362
     33 H6         -1.1443   -1.7285    0.5180 H         1 <0>         0.0876
     34 H7         -2.0551   -0.1993    0.5352 H         1 <0>         0.0875
     35 H8         -1.8934   -0.0752   -1.9361 H         1 <0>         0.0715
     36 H9         -0.9826   -1.6044   -1.9533 H         1 <0>         0.0715
     37 H10        -3.4120   -2.0309   -0.5776 H         1 <0>         0.3980
     38 H11        -5.1604   -3.0592   -1.7331 H         1 <0>         0.4020
     39 H12        -5.6287   -2.2721   -4.4047 H         1 <0>         0.0812
     40 H13        -4.7180   -3.8013   -4.4219 H         1 <0>         0.0748
     41 H14        -6.1917   -6.1092   -5.0911 H         1 <0>         0.1408
     42 H15        -7.2676   -6.7309   -7.2160 H         1 <0>         0.1511
     43 H16        -8.6334   -2.6197   -4.8678 H         1 <0>         0.1501
     44 H17        -5.7771   -5.7347   -3.2701 H         1 <0>         0.3796
     45 H18         3.7682    2.2150    2.2708 H         1 <0>         0.4166
     46 H19         5.1421    3.0386    1.7642 H         1 <0>         0.4218
@<TRIPOS>BOND
     1    1    6 ar
     2    1    2 ar
     3    1   29 1
     4    2    3 ar
     5    2   30 1
     6    3    4 ar
     7    3   25 1
     8    4    5 ar
     9    4   31 1
    10    5    6 ar
    11    5   32 1
    12    6    7 1
    13    7    8 1
    14    7   33 1
    15    7   34 1
    16    8    9 1
    17    8   35 1
    18    8   36 1
    19    9   10 am
    20    9   37 1
    21   10   11 2
    22   10   12 am
    23   12   13 1
    24   12   38 1
    25   13   14 1
    26   13   39 1
    27   13   40 1
    28   14   15 1
    29   14   16 1
    30   14   24 1
    31   16   21 ar
    32   16   17 ar
    33   17   18 ar
    34   17   41 1
    35   18   19 ar
    36   18   42 1
    37   19   20 ar
    38   19   23 1
    39   20   21 ar
    40   20   22 1
    41   21   43 1
    42   24   44 1
    43   25   26 2
    44   25   27 2
    45   25   28 1
    46   28   45 1
    47   28   46 1
@<TRIPOS>MOLECULE
ZINC66908002
   46    47     0     0     0
SMALL
USER_CHARGES

@<TRIPOS>ATOM
      1 C1         -0.0187    1.5258    0.0104 C.3       1 <0>        -0.1631
      2 C2          0.0021   -0.0041    0.0020 C.3       1 <0>         0.2000
      3 H1          0.5123   -0.3556   -0.8948 H         1 <0>         0.1071
      4 C3          0.7309   -0.5033    1.2229 C.ar      1 <0>        -0.1136
      5 C4          0.0807   -0.5585    2.4418 C.ar      1 <0>        -0.0584
      6 C5          0.7492   -1.0164    3.5615 C.ar      1 <0>        -0.1322
      7 C6          2.0680   -1.4196    3.4626 C.ar      1 <0>        -0.0184
      8 C7          2.7177   -1.3652    2.2440 C.ar      1 <0>        -0.6705
      9 C8          2.0477   -0.9112    1.1230 C.ar      1 <0>        -0.0026
     10 S1          4.3986   -1.8785    2.1181 S.o2      1 <0>         2.7010
     11 O1          4.9413   -1.2172    0.9835 O.2       1 <0>        -0.9586
     12 O2          4.9611   -1.7492    3.4166 O.2       1 <0>        -0.9575
     13 N1          4.3913   -3.4963    1.7644 N.pl3     1 <0>        -1.2472
     14 N2         -1.3723   -0.5112    0.0124 N.am      1 <0>        -0.7398
     15 C9         -2.0508   -0.6427   -1.1446 C.2       1 <0>         0.7158
     16 O3         -1.5223   -0.3406   -2.1971 O.2       1 <0>        -0.5630
     17 N3         -3.3153   -1.1092   -1.1351 N.am      1 <0>        -0.5306
     18 N4         -3.9243   -1.4574    0.0776 N.am      1 <0>        -0.5332
     19 C10        -5.1887   -1.9239    0.0872 C.2       1 <0>         0.5175
     20 O4         -5.7993   -2.0423   -0.9540 O.2       1 <0>        -0.5154
     21 C11        -5.8438   -2.2984    1.3917 C.3       1 <0>        -0.0900
     22 C12        -7.2448   -2.7872    1.1281 C.ar      1 <0>        -0.1102
     23 C13        -8.3108   -1.9120    1.2176 C.ar      1 <0>        -0.0759
     24 C14        -9.5958   -2.3600    0.9759 C.ar      1 <0>        -0.1286
     25 C15        -9.8165   -3.6841    0.6443 C.ar      1 <0>        -0.0845
     26 C16        -8.7524   -4.5608    0.5537 C.ar      1 <0>        -0.1530
     27 C17        -7.4639   -4.1118    0.7906 C.ar      1 <0>         0.1156
     28 F1         -6.4222   -4.9671    0.6978 F         1 <0>        -0.1373
     29 H2          1.0039    1.9031    0.0027 H         1 <0>         0.0743
     30 H3         -0.5459    1.8868   -0.8726 H         1 <0>         0.0719
     31 H4         -0.5289    1.8773    0.9072 H         1 <0>         0.0601
     32 H5         -0.9494   -0.2436    2.5190 H         1 <0>         0.1284
     33 H6          0.2415   -1.0588    4.5138 H         1 <0>         0.1389
     34 H7          2.5905   -1.7767    4.3377 H         1 <0>         0.1460
     35 H8          2.5543   -0.8723    0.1700 H         1 <0>         0.1473
     36 H9          5.1133   -3.8823    1.2441 H         1 <0>         0.4234
     37 H10         3.6650   -4.0579    2.0774 H         1 <0>         0.4173
     38 H11        -1.7940   -0.7522    0.8520 H         1 <0>         0.3892
     39 H12        -3.8036   -1.2039   -1.9678 H         1 <0>         0.4453
     40 H13        -3.4360   -1.3627    0.9104 H         1 <0>         0.4178
     41 H14        -5.2680   -3.0884    1.8738 H         1 <0>         0.1132
     42 H15        -5.8802   -1.4257    2.0437 H         1 <0>         0.1168
     43 H16        -8.1396   -0.8776    1.4769 H         1 <0>         0.1326
     44 H17       -10.4281   -1.6755    1.0464 H         1 <0>         0.1323
     45 H18       -10.8211   -4.0332    0.4563 H         1 <0>         0.1347
     46 H19        -8.9250   -5.5951    0.2950 H         1 <0>         0.1373
@<TRIPOS>BOND
     1    1    2 1
     2    1   29 1
     3    1   30 1
     4    1   31 1
     5    2    3 1
     6    2    4 1
     7    2   14 1
     8    4    9 ar
     9    4    5 ar
    10    5    6 ar
    11    5   32 1
    12    6    7 ar
    13    6   33 1
    14    7    8 ar
    15    7   34 1
    16    8    9 ar
    17    8   10 1
    18    9   35 1
    19   10   11 2
    20   10   12 2
    21   10   13 1
    22   13   36 1
    23   13   37 1
    24   14   15 am
    25   14   38 1
    26   15   16 2
    27   15   17 am
    28   17   18 1
    29   17   39 1
    30   18   19 am
    31   18   40 1
    32   19   20 2
    33   19   21 1
    34   21   22 1
    35   21   41 1
    36   21   42 1
    37   22   27 ar
    38   22   23 ar
    39   23   24 ar
    40   23   43 1
    41   24   25 ar
    42   24   44 1
    43   25   26 ar
    44   25   45 1
    45   26   27 ar
    46   26   46 1
    47   27   28 1
@<TRIPOS>MOLECULE
ZINC13401953
   51    52     0     0     0
SMALL
USER_CHARGES
(2S,3S,4R)-5-[(4,5-dimethyl-2-phenylazo-phenyl)amino]pentane-1,2,3,4-tetrol
@<TRIPOS>ATOM
      1 C1         -6.1457    6.1167    0.0637 C.3       1 <0>        -0.1260
      2 C2         -4.8292    5.3834    0.0541 C.ar      1 <0>         0.0016
      3 C3         -3.6466    6.0969    0.0524 C.ar      1 <0>        -0.2113
      4 C4         -2.4307    5.4280    0.0489 C.ar      1 <0>         0.2855
      5 C5         -2.4103    4.0229    0.0353 C.ar      1 <0>        -0.0360
      6 C6         -3.6159    3.3155    0.0372 C.ar      1 <0>        -0.0388
      7 C7         -4.8132    3.9981    0.0465 C.ar      1 <0>        -0.1530
      8 C8         -6.1119    3.2336    0.0480 C.3       1 <0>        -0.1101
      9 N1         -1.2221    3.3539    0.0261 N.2       1 <0>        -0.1984
     10 N2         -1.2082    2.0640    0.0190 N.2       1 <0>        -0.2450
     11 C9         -0.0169    1.3932    0.0097 C.ar      1 <0>         0.0579
     12 C10         1.1877    2.1016    0.0020 C.ar      1 <0>        -0.1093
     13 C11         2.3855    1.4182   -0.0136 C.ar      1 <0>        -0.1219
     14 C12         2.3964    0.0344   -0.0206 C.ar      1 <0>        -0.1024
     15 C13         1.2076   -0.6738   -0.0131 C.ar      1 <0>        -0.1214
     16 C14         0.0021   -0.0041    0.0020 C.ar      1 <0>        -0.0688
     17 N3         -1.2383    6.1446    0.0534 N.pl3     1 <0>        -0.7181
     18 C15        -1.2641    7.6093    0.0675 C.3       1 <0>         0.0916
     19 C16         0.1692    8.1446    0.0698 C.3       1 <0>         0.0720
     20 H1          0.7175    7.7115    0.9064 H         1 <0>         0.1152
     21 C17         0.1445    9.6680    0.2102 C.3       1 <0>         0.0470
     22 H2         -0.2651    9.9365    1.1840 H         1 <0>         0.1210
     23 C18         1.5682   10.2146    0.0875 C.3       1 <0>         0.0828
     24 H3          2.1679    9.8575    0.9248 H         1 <0>         0.1136
     25 C19         1.5304   11.7440    0.1029 C.3       1 <0>         0.0474
     26 O1          2.8655   12.2535    0.1058 O.3       1 <0>        -0.5655
     27 O2          2.1471    9.7648   -1.1391 O.3       1 <0>        -0.5261
     28 O3         -0.6713   10.2282   -0.8207 O.3       1 <0>        -0.5489
     29 O4          0.8122    7.7896   -1.1560 O.3       1 <0>        -0.5290
     30 H4         -6.4587    6.2880    1.0937 H         1 <0>         0.0780
     31 H5         -6.0323    7.0738   -0.4454 H         1 <0>         0.0692
     32 H6         -6.8984    5.5188   -0.4501 H         1 <0>         0.0765
     33 H7         -3.6681    7.1767    0.0579 H         1 <0>         0.1310
     34 H8         -3.6092    2.2355    0.0317 H         1 <0>         0.1375
     35 H9         -6.4203    3.0434    1.0760 H         1 <0>         0.0664
     36 H10        -6.8788    3.8191   -0.4590 H         1 <0>         0.0685
     37 H11        -5.9758    2.2853   -0.4719 H         1 <0>         0.0635
     38 H12         1.1806    3.1816    0.0075 H         1 <0>         0.1315
     39 H13         3.3172    1.9643   -0.0199 H         1 <0>         0.1259
     40 H14         3.3375   -0.4954   -0.0325 H         1 <0>         0.1266
     41 H15         1.2238   -1.7537   -0.0194 H         1 <0>         0.1312
     42 H16        -0.9250   -0.5581    0.0075 H         1 <0>         0.1329
     43 H17        -0.3899    5.6745    0.0472 H         1 <0>         0.4137
     44 H18        -1.7860    7.9721   -0.8180 H         1 <0>         0.0745
     45 H19        -1.7824    7.9550    0.9619 H         1 <0>         0.0739
     46 H20         1.0062   12.1035   -0.7826 H         1 <0>         0.0548
     47 H21         1.0093   12.0856    0.9973 H         1 <0>         0.0543
     48 H22         2.9180   13.2191    0.1154 H         1 <0>         0.3819
     49 H23         1.6644   10.0462   -1.9283 H         1 <0>         0.3630
     50 H24        -0.3654   10.0291   -1.7161 H         1 <0>         0.3722
     51 H25         0.3773    8.1418   -1.9446 H         1 <0>         0.3675
@<TRIPOS>BOND
     1    1    2 1
     2    1   30 1
     3    1   31 1
     4    1   32 1
     5    2    7 ar
     6    2    3 ar
     7    3    4 ar
     8    3   33 1
     9    4    5 ar
    10    4   17 1
    11    5    6 ar
    12    5    9 1
    13    6    7 ar
    14    6   34 1
    15    7    8 1
    16    8   35 1
    17    8   36 1
    18    8   37 1
    19    9   10 2
    20   10   11 1
    21   11   16 ar
    22   11   12 ar
    23   12   13 ar
    24   12   38 1
    25   13   14 ar
    26   13   39 1
    27   14   15 ar
    28   14   40 1
    29   15   16 ar
    30   15   41 1
    31   16   42 1
    32   17   18 1
    33   17   43 1
    34   18   19 1
    35   18   44 1
    36   18   45 1
    37   19   20 1
    38   19   21 1
    39   19   29 1
    40   21   22 1
    41   21   23 1
    42   21   28 1
    43   23   24 1
    44   23   25 1
    45   23   27 1
    46   25   26 1
    47   25   46 1
    48   25   47 1
    49   26   48 1
    50   27   49 1
    51   28   50 1
    52   29   51 1
@<TRIPOS>MOLECULE
ZINC39561042
   34    35     0     0     0
SMALL
USER_CHARGES

@<TRIPOS>ATOM
      1 C1         -0.0175    1.4408    0.0100 C.2       1 <0>        -0.1028
      2 C2          1.1856    2.0439    0.0017 C.2       1 <0>        -0.2523
      3 S1          2.3276    0.6794   -0.0165 S.3       1 <0>         0.2935
      4 C3          1.2511   -0.6074   -0.0131 C.2       1 <0>         0.0825
      5 C4          0.0021   -0.0041    0.0020 C.2       1 <0>        -0.2700
      6 C5         -1.2345   -0.7918    0.0096 C.2       1 <0>         0.5913
      7 O1         -1.1815   -2.0078    0.0030 O.2       1 <0>        -0.5653
      8 N1         -2.4299   -0.1695    0.0238 N.am      1 <0>        -0.8482
      9 N2          1.5429   -1.9630   -0.0232 N.am      1 <0>        -0.6078
     10 C6          2.8257   -2.3760   -0.0372 C.2       1 <0>         0.5074
     11 O2          3.7249   -1.5621   -0.0409 O.2       1 <0>        -0.4689
     12 C7          3.1429   -3.8492   -0.0481 C.3       1 <0>         0.0534
     13 O3          4.5602   -4.0313   -0.0621 O.3       1 <0>        -0.2999
     14 C8          5.0137   -5.2996   -0.0731 C.2       1 <0>         0.5261
     15 O4          4.2279   -6.2255   -0.0710 O.2       1 <0>        -0.4613
     16 C9          6.4690   -5.5645   -0.0878 C.ar      1 <0>         0.1685
     17 C10         6.9306   -6.8779   -0.1050 C.ar      1 <0>        -0.1057
     18 C11         8.3065   -7.1107   -0.1192 C.ar      1 <0>         0.2841
     19 C12         9.1636   -6.0117   -0.1156 C.ar      1 <0>        -0.1310
     20 C13         8.6269   -4.7338   -0.0981 C.ar      1 <0>         0.2269
     21 N3          7.3238   -4.5462   -0.0901 N.ar      1 <0>        -0.4379
     22 Cl1         9.6887   -3.3604   -0.0935 Cl        1 <0>         0.0179
     23 Cl2        10.8843   -6.2407   -0.1322 Cl        1 <0>        -0.0111
     24 N4          8.8108   -8.4095   -0.1362 N.pl3     1 <0>        -0.8332
     25 Cl3         5.8119   -8.2054   -0.1081 Cl        1 <0>         0.0070
     26 H1         -0.9402    2.0018    0.0261 H         1 <0>         0.1429
     27 H2          1.4051    3.1013    0.0050 H         1 <0>         0.1903
     28 H3         -2.4722    0.7996    0.0291 H         1 <0>         0.4020
     29 H4         -3.2480   -0.6906    0.0289 H         1 <0>         0.4050
     30 H5          0.8238   -2.6139   -0.0202 H         1 <0>         0.4356
     31 H6          2.7252   -4.3175    0.8432 H         1 <0>         0.1147
     32 H7          2.7089   -4.3077   -0.9367 H         1 <0>         0.1146
     33 H8          8.2033   -9.1657   -0.1382 H         1 <0>         0.4157
     34 H9          9.7694   -8.5575   -0.1460 H         1 <0>         0.4159
@<TRIPOS>BOND
     1    1    5 1
     2    1    2 2
     3    1   26 1
     4    2    3 1
     5    2   27 1
     6    3    4 1
     7    4    5 2
     8    4    9 1
     9    5    6 1
    10    6    7 2
    11    6    8 am
    12    8   28 1
    13    8   29 1
    14    9   10 am
    15    9   30 1
    16   10   11 2
    17   10   12 1
    18   12   13 1
    19   12   31 1
    20   12   32 1
    21   13   14 1
    22   14   15 2
    23   14   16 1
    24   16   21 ar
    25   16   17 ar
    26   17   18 ar
    27   17   25 1
    28   18   19 ar
    29   18   24 1
    30   19   20 ar
    31   19   23 1
    32   20   21 ar
    33   20   22 1
    34   24   33 1
    35   24   34 1
@<TRIPOS>MOLECULE
ZINC48647246
   48    50     0     0     0
SMALL
USER_CHARGES

@<TRIPOS>ATOM
      1 C1         -0.0493    1.3643    0.0271 C.ar      1 <0>        -0.1440
      2 C2          1.1328    2.0923    0.0181 C.ar      1 <0>        -0.0978
      3 C3          2.3522    1.4519   -0.0035 C.ar      1 <0>        -0.1298
      4 C4          2.4024    0.0616   -0.0159 C.ar      1 <0>         0.0946
      5 C5          1.2018   -0.6714   -0.0062 C.ar      1 <0>        -0.1005
      6 C6         -0.0232   -0.0017    0.0152 C.ar      1 <0>        -0.0719
      7 C7          1.5897   -2.0839   -0.0233 C.2       1 <0>        -0.1746
      8 C8          2.9314   -2.1221   -0.0414 C.2       1 <0>         0.0633
      9 N1          3.4344   -0.8496   -0.0373 N.pl3     1 <0>        -0.5943
     10 H1          4.3775   -0.6231   -0.0475 H         1 <0>         0.4174
     11 C9          0.6591   -3.2692   -0.0205 C.3       1 <0>        -0.0536
     12 C10         0.2258   -3.5807   -1.4545 C.3       1 <0>         0.1215
     13 N2         -0.6789   -4.7330   -1.4518 N.am      1 <0>        -0.6977
     14 C11        -1.1908   -5.1905   -2.6116 C.2       1 <0>         0.5100
     15 O1         -0.9024   -4.6479   -3.6581 O.2       1 <0>        -0.5150
     16 C12        -2.1130   -6.3651   -2.6089 C.2       1 <0>         0.5076
     17 O2         -2.4015   -6.9078   -1.5621 O.2       1 <0>        -0.5000
     18 N3         -2.6250   -6.8226   -3.7686 N.am      1 <0>        -0.6406
     19 C13        -3.4102   -7.9800   -3.7781 C.ar      1 <0>         0.0993
     20 C14        -4.2585   -8.2531   -2.7125 C.ar      1 <0>        -0.0751
     21 C15        -5.0336   -9.3955   -2.7229 C.ar      1 <0>        -0.1270
     22 C16        -4.9654  -10.2708   -3.7974 C.ar      1 <0>         0.1204
     23 C17        -4.1181   -9.9991   -4.8620 C.ar      1 <0>        -0.1920
     24 C18        -3.3466   -8.8542   -4.8559 C.ar      1 <0>        -0.0945
     25 O3         -5.7291  -11.3956   -3.8068 O.3       1 <0>        -0.2883
     26 C19        -5.6087  -12.2519   -4.9445 C.3       1 <0>         0.0384
     27 C20        -6.5230  -13.4383   -4.7792 C.2       1 <0>         0.5188
     28 O4         -7.2101  -13.5406   -3.7850 O.2       1 <0>        -0.5161
     29 N4         -6.5773  -14.3859   -5.7361 N.am      1 <0>        -0.8504
     30 H2         -0.9970    1.8818    0.0483 H         1 <0>         0.1229
     31 H3          1.0960    3.1716    0.0277 H         1 <0>         0.1257
     32 H4          3.2662    2.0271   -0.0111 H         1 <0>         0.1200
     33 H5         -0.9468   -0.5614    0.0226 H         1 <0>         0.1209
     34 H6          3.5258   -3.0237   -0.0572 H         1 <0>         0.1712
     35 H7          1.1731   -4.1337    0.3996 H         1 <0>         0.0797
     36 H8         -0.2193   -3.0401    0.5828 H         1 <0>         0.0803
     37 H9         -0.2882   -2.7162   -1.8746 H         1 <0>         0.0770
     38 H10         1.1042   -3.8098   -2.0578 H         1 <0>         0.0753
     39 H11        -0.9094   -5.1667   -0.6153 H         1 <0>         0.4144
     40 H12        -2.4488   -6.3492   -4.5967 H         1 <0>         0.4232
     41 H13        -4.3114   -7.5721   -1.8759 H         1 <0>         0.1482
     42 H14        -5.6929   -9.6082   -1.8944 H         1 <0>         0.1398
     43 H15        -4.0655  -10.6811   -5.6977 H         1 <0>         0.1342
     44 H16        -2.6906   -8.6404   -5.6868 H         1 <0>         0.1333
     45 H17        -5.8859  -11.7021   -5.8440 H         1 <0>         0.0960
     46 H18        -4.5784  -12.5966   -5.0324 H         1 <0>         0.0958
     47 H19        -6.0278  -14.3041   -6.5313 H         1 <0>         0.4036
     48 H20        -7.1658  -15.1495   -5.6297 H         1 <0>         0.4103
@<TRIPOS>BOND
     1    1    6 ar
     2    1    2 ar
     3    1   30 1
     4    2    3 ar
     5    2   31 1
     6    3    4 ar
     7    3   32 1
     8    4    9 1
     9    4    5 ar
    10    5    6 ar
    11    5    7 1
    12    6   33 1
    13    7    8 2
    14    7   11 1
    15    8    9 1
    16    8   34 1
    17    9   10 1
    18   11   12 1
    19   11   35 1
    20   11   36 1
    21   12   13 1
    22   12   37 1
    23   12   38 1
    24   13   14 am
    25   13   39 1
    26   14   15 2
    27   14   16 1
    28   16   17 2
    29   16   18 am
    30   18   19 1
    31   18   40 1
    32   19   24 ar
    33   19   20 ar
    34   20   21 ar
    35   20   41 1
    36   21   22 ar
    37   21   42 1
    38   22   23 ar
    39   22   25 1
    40   23   24 ar
    41   23   43 1
    42   24   44 1
    43   25   26 1
    44   26   27 1
    45   26   45 1
    46   26   46 1
    47   27   28 2
    48   27   29 am
    49   29   47 1
    50   29   48 1
@<TRIPOS>MOLECULE
ZINC49984248
   51    51     0     0     0
SMALL
USER_CHARGES

@<TRIPOS>ATOM
      1 C1         -0.0187    1.5258    0.0104 C.3       1 <0>        -0.1541
      2 C2          0.0021   -0.0041    0.0020 C.3       1 <0>        -0.1113
      3 C3         -1.4333   -0.5336    0.0129 C.3       1 <0>        -0.1073
      4 H1         -1.9862   -0.1019   -0.8214 H         1 <0>         0.1056
      5 C4         -2.1103   -0.1453    1.3289 C.3       1 <0>        -0.1634
      6 C5         -1.4157   -2.0577   -0.1212 C.3       1 <0>         0.1723
      7 H2         -0.8628   -2.4894    0.7131 H         1 <0>         0.1156
      8 C6         -2.8295   -2.5793   -0.1105 C.2       1 <0>         0.5023
      9 O1         -3.3767   -2.8694   -1.1532 O.2       1 <0>        -0.4992
     10 N1         -3.4858   -2.7233    1.0578 N.am      1 <0>        -0.5234
     11 N2         -4.8001   -3.2083    1.0678 N.am      1 <0>        -0.5197
     12 C7         -5.4565   -3.3523    2.2361 C.2       1 <0>         0.5173
     13 O2         -4.9092   -3.0622    3.2788 O.2       1 <0>        -0.5128
     14 C8         -6.8703   -3.8739    2.2468 C.3       1 <0>         0.0524
     15 O3         -7.3450   -3.9359    3.5932 O.3       1 <0>        -0.2851
     16 C9         -8.6126   -4.3886    3.7803 C.ar      1 <0>         0.1279
     17 C10        -9.3818   -4.7710    2.6906 C.ar      1 <0>        -0.2075
     18 C11       -10.6698   -5.2312    2.8835 C.ar      1 <0>        -0.0522
     19 C12       -11.1927   -5.3111    4.1611 C.ar      1 <0>        -0.1508
     20 C13       -10.4285   -4.9303    5.2484 C.ar      1 <0>        -0.0788
     21 C14        -9.1376   -4.4746    5.0613 C.ar      1 <0>        -0.1146
     22 C15        -8.3029   -4.0656    6.2475 C.3       1 <0>        -0.1079
     23 C16       -11.5060   -5.6462    1.7004 C.3       1 <0>        -0.1174
     24 N3         -0.7675   -2.4295   -1.3813 N.am      1 <0>        -0.7324
     25 C17        -1.2799   -2.0055   -2.5535 C.2       1 <0>         0.7112
     26 O4         -2.2801   -1.3143   -2.5652 O.2       1 <0>        -0.5640
     27 N4         -0.6835   -2.3476   -3.7127 N.am      1 <0>        -0.8681
     28 H3          1.0039    1.9031    0.0027 H         1 <0>         0.0550
     29 H4         -0.5459    1.8868   -0.8726 H         1 <0>         0.0546
     30 H5         -0.5289    1.8773    0.9072 H         1 <0>         0.0580
     31 H6          0.5123   -0.3556   -0.8948 H         1 <0>         0.0635
     32 H7          0.5293   -0.3651    0.8851 H         1 <0>         0.0635
     33 H8         -1.5574   -0.5770    2.1631 H         1 <0>         0.0608
     34 H9         -2.1228    0.9405    1.4244 H         1 <0>         0.0717
     35 H10        -3.1329   -0.5225    1.3366 H         1 <0>         0.0599
     36 H11        -3.0481   -2.4913    1.8918 H         1 <0>         0.4315
     37 H12        -5.2378   -3.4403    0.2338 H         1 <0>         0.4332
     38 H13        -7.5081   -3.2068    1.6670 H         1 <0>         0.1003
     39 H14        -6.8929   -4.8712    1.8073 H         1 <0>         0.0996
     40 H15        -8.9740   -4.7084    1.6926 H         1 <0>         0.1277
     41 H16       -12.2000   -5.6712    4.3098 H         1 <0>         0.1249
     42 H17       -10.8393   -4.9933    6.2452 H         1 <0>         0.1311
     43 H18        -8.4571   -3.0062    6.4523 H         1 <0>         0.0689
     44 H19        -8.5979   -4.6508    7.1185 H         1 <0>         0.0653
     45 H20        -7.2499   -4.2440    6.0296 H         1 <0>         0.0725
     46 H21       -11.3517   -6.7066    1.5005 H         1 <0>         0.0732
     47 H22       -12.5587   -5.4671    1.9189 H         1 <0>         0.0697
     48 H23       -11.2124   -5.0651    0.8262 H         1 <0>         0.0667
     49 H24         0.0305   -2.9810   -1.3719 H         1 <0>         0.4032
     50 H25         0.1144   -2.8990   -3.7034 H         1 <0>         0.3948
     51 H26        -1.0523   -2.0424   -4.5564 H         1 <0>         0.4157
@<TRIPOS>BOND
     1    1    2 1
     2    1   28 1
     3    1   29 1
     4    1   30 1
     5    2    3 1
     6    2   31 1
     7    2   32 1
     8    3    4 1
     9    3    5 1
    10    3    6 1
    11    5   33 1
    12    5   34 1
    13    5   35 1
    14    6    7 1
    15    6    8 1
    16    6   24 1
    17    8    9 2
    18    8   10 am
    19   10   11 1
    20   10   36 1
    21   11   12 am
    22   11   37 1
    23   12   13 2
    24   12   14 1
    25   14   15 1
    26   14   38 1
    27   14   39 1
    28   15   16 1
    29   16   21 ar
    30   16   17 ar
    31   17   18 ar
    32   17   40 1
    33   18   19 ar
    34   18   23 1
    35   19   20 ar
    36   19   41 1
    37   20   21 ar
    38   20   42 1
    39   21   22 1
    40   22   43 1
    41   22   44 1
    42   22   45 1
    43   23   46 1
    44   23   47 1
    45   23   48 1
    46   24   25 am
    47   24   49 1
    48   25   26 2
    49   25   27 am
    50   27   50 1
    51   27   51 1
@<TRIPOS>MOLECULE
ZINC67498034
   44    45     0     0     0
SMALL
USER_CHARGES

@<TRIPOS>ATOM
      1 C1          0.2700    1.4361    0.6062 C.3       1 <0>        -0.1226
      2 C2          0.1426   -0.0339    0.2993 C.ar      1 <0>        -0.0277
      3 C3         -0.4830   -0.8747    1.1976 C.ar      1 <0>        -0.1092
      4 C4         -0.6021   -2.2235    0.9213 C.ar      1 <0>        -0.1033
      5 C5         -0.0930   -2.7426   -0.2639 C.ar      1 <0>         0.1222
      6 C6          0.5367   -1.9061   -1.1729 C.ar      1 <0>        -0.0806
      7 C7          0.6521   -0.5440   -0.8960 C.ar      1 <0>        -0.1268
      8 C8          1.3173    0.3557   -1.8626 C.2       1 <0>         0.5647
      9 O1          1.3147    1.5569   -1.6761 O.2       1 <0>        -0.5304
     10 N1          1.9265   -0.1560   -2.9505 N.am      1 <0>        -0.8493
     11 N2         -0.2155   -4.1074   -0.5386 N.am      1 <0>        -0.6417
     12 C9         -0.3889   -4.5264   -1.8078 C.2       1 <0>         0.5089
     13 O2         -0.5326   -3.7162   -2.7001 O.2       1 <0>        -0.4966
     14 C10        -0.4041   -5.9877   -2.1164 C.2       1 <0>         0.5115
     15 O3         -0.2603   -6.7977   -1.2242 O.2       1 <0>        -0.5124
     16 N3         -0.5774   -6.4067   -3.3856 N.am      1 <0>        -0.6915
     17 C11        -0.5923   -7.8400   -3.6882 C.3       1 <0>         0.0897
     18 C12        -0.8033   -8.0420   -5.1901 C.3       1 <0>         0.1433
     19 H1         -1.7089   -7.5223   -5.5029 H         1 <0>         0.1247
     20 C13        -0.9414   -9.5135   -5.4845 C.ar      1 <0>        -0.1685
     21 C14         0.1644  -10.2476   -5.8704 C.ar      1 <0>        -0.0492
     22 C15         0.0394  -11.5970   -6.1403 C.ar      1 <0>        -0.1579
     23 C16        -1.1944  -12.2154   -6.0248 C.ar      1 <0>         0.1388
     24 C17        -2.3023  -11.4814   -5.6385 C.ar      1 <0>        -0.1886
     25 C18        -2.1747  -10.1307   -5.3628 C.ar      1 <0>         0.1446
     26 F1         -3.2542   -9.4142   -4.9802 F         1 <0>        -0.1245
     27 F2         -1.3166  -13.5346   -6.2896 F         1 <0>        -0.1261
     28 O4          0.3179   -7.5166   -5.9035 O.3       1 <0>        -0.5424
     29 H2         -0.5381    1.9806    0.1178 H         1 <0>         0.0778
     30 H3          0.2116    1.5886    1.6839 H         1 <0>         0.0607
     31 H4          1.2287    1.8021    0.2388 H         1 <0>         0.0950
     32 H5         -0.8804   -0.4772    2.1198 H         1 <0>         0.1389
     33 H6         -1.0920   -2.8765    1.6283 H         1 <0>         0.1358
     34 H7          0.9330   -2.3073   -2.0940 H         1 <0>         0.1384
     35 H8          1.9285   -1.1145   -3.0993 H         1 <0>         0.4011
     36 H9          2.3628    0.4342   -3.5846 H         1 <0>         0.4067
     37 H10        -0.1758   -4.7531    0.1841 H         1 <0>         0.4254
     38 H11        -0.6923   -5.7592   -4.0986 H         1 <0>         0.4196
     39 H12         0.3581   -8.2838   -3.3919 H         1 <0>         0.0851
     40 H13        -1.4036   -8.3187   -3.1397 H         1 <0>         0.0887
     41 H14         1.1268   -9.7660   -5.9614 H         1 <0>         0.1460
     42 H15         0.9041  -12.1696   -6.4418 H         1 <0>         0.1485
     43 H16        -3.2648  -11.9629   -5.5482 H         1 <0>         0.1537
     44 H17         1.1599   -7.9336   -5.6750 H         1 <0>         0.3792
@<TRIPOS>BOND
     1    1    2 1
     2    1   29 1
     3    1   30 1
     4    1   31 1
     5    2    7 ar
     6    2    3 ar
     7    3    4 ar
     8    3   32 1
     9    4    5 ar
    10    4   33 1
    11    5    6 ar
    12    5   11 1
    13    6    7 ar
    14    6   34 1
    15    7    8 1
    16    8    9 2
    17    8   10 am
    18   10   35 1
    19   10   36 1
    20   11   12 am
    21   11   37 1
    22   12   13 2
    23   12   14 1
    24   14   15 2
    25   14   16 am
    26   16   17 1
    27   16   38 1
    28   17   18 1
    29   17   39 1
    30   17   40 1
    31   18   19 1
    32   18   20 1
    33   18   28 1
    34   20   25 ar
    35   20   21 ar
    36   21   22 ar
    37   21   41 1
    38   22   23 ar
    39   22   42 1
    40   23   24 ar
    41   23   27 1
    42   24   25 ar
    43   24   43 1
    44   25   26 1
    45   28   44 1
@<TRIPOS>MOLECULE
ZINC21247563
   42    44     0     0     0
SMALL
USER_CHARGES
2-[[4-amino-5-(2-methyl-3-furyl)-1,2,4-triazol-3-yl]sulfanyl]-N-(2-furylmethylcarbamoyl)acetamide
@<TRIPOS>ATOM
      1 C1         -6.7602   -0.7783    0.0753 C.3       1 <0>        -0.0963
      2 C2         -6.0884   -2.1272    0.0552 C.2       1 <0>         0.0662
      3 C3         -4.7462   -2.3473    0.0354 C.2       1 <0>        -0.1322
      4 C4         -4.5823   -3.8065    0.0266 C.2       1 <0>        -0.2086
      5 C5         -5.8237   -4.3191    0.0366 C.2       1 <0>        -0.0148
      6 O1         -6.7124   -3.3141    0.0505 O.3       1 <0>        -0.1718
      7 C6         -3.6742   -1.3282    0.0303 C.2       1 <0>         0.2452
      8 N1         -3.8359   -0.0257    0.0383 N.2       1 <0>        -0.2665
      9 N2         -2.6916    0.5590    0.0303 N.2       1 <0>        -0.2789
     10 C7         -1.7288   -0.3336    0.0168 C.2       1 <0>         0.1149
     11 N3         -2.3198   -1.5665    0.0103 N.pl3     1 <0>        -0.2063
     12 N4         -1.6955   -2.7813   -0.0087 N.3       1 <0>        -0.7633
     13 S1          0.0021   -0.0041    0.0020 S.3       1 <0>         0.0813
     14 C8         -0.0225    1.8057    0.0120 C.3       1 <0>        -0.1466
     15 C9          1.3913    2.3274    0.0013 C.2       1 <0>         0.5420
     16 O2          2.3234    1.5522   -0.0118 O.2       1 <0>        -0.4550
     17 N5          1.6196    3.6556    0.0062 N.am      1 <0>        -0.6979
     18 C10         2.8840    4.1221   -0.0033 C.2       1 <0>         0.7014
     19 O3          3.8184    3.3450   -0.0164 O.2       1 <0>        -0.5312
     20 N6          3.1123    5.4504    0.0016 N.am      1 <0>        -0.7459
     21 C11         4.4867    5.9575   -0.0088 C.3       1 <0>         0.2219
     22 C12         4.4663    7.4643   -0.0005 C.2       1 <0>        -0.0420
     23 C13         4.4660    8.2451    1.0949 C.2       1 <0>        -0.1780
     24 C14         4.4435    9.5846    0.6432 C.2       1 <0>        -0.2188
     25 C15         4.4313    9.5423   -0.7012 C.2       1 <0>        -0.0244
     26 O4          4.4511    8.2556   -1.0856 O.3       1 <0>        -0.1713
     27 H1         -5.9953    0.0123    0.0747 H         1 <0>         0.1196
     28 H2         -7.3782   -0.6899    0.9810 H         1 <0>         0.0855
     29 H3         -7.3974   -0.6727   -0.8151 H         1 <0>         0.0855
     30 H4         -3.6525   -4.3559    0.0151 H         1 <0>         0.1495
     31 H5         -6.0674   -5.3712    0.0343 H         1 <0>         0.2121
     32 H6         -0.5969   -2.8349   -0.0237 H         1 <0>         0.4478
     33 H7         -2.2913   -3.7059   -0.0090 H         1 <0>         0.4430
     34 H8         -0.5545    2.1701   -0.8792 H         1 <0>         0.1365
     35 H9         -0.5374    2.1604    0.9170 H         1 <0>         0.1366
     36 H10         0.7740    4.3590    0.0180 H         1 <0>         0.4392
     37 H11         2.2666    6.1537    0.0134 H         1 <0>         0.4234
     38 H12         5.0187    5.5931    0.8824 H         1 <0>         0.1016
     39 H13         5.0016    5.6028   -0.9138 H         1 <0>         0.0871
     40 H14         4.4798    7.9124    2.1223 H         1 <0>         0.1516
     41 H15         4.4369   10.4716    1.2593 H         1 <0>         0.1519
     42 H16         4.4139   10.3980   -1.3599 H         1 <0>         0.2062
@<TRIPOS>BOND
     1    1    2 1
     2    1   27 1
     3    1   28 1
     4    1   29 1
     5    2    6 1
     6    2    3 2
     7    3    4 1
     8    3    7 1
     9    4    5 2
    10    4   30 1
    11    5    6 1
    12    5   31 1
    13    7   11 1
    14    7    8 2
    15    8    9 1
    16    9   10 2
    17   10   11 1
    18   10   13 1
    19   11   12 1
    20   12   32 1
    21   12   33 1
    22   13   14 1
    23   14   15 1
    24   14   34 1
    25   14   35 1
    26   15   16 2
    27   15   17 am
    28   17   18 am
    29   17   36 1
    30   18   19 2
    31   18   20 am
    32   20   21 1
    33   20   37 1
    34   21   22 1
    35   21   38 1
    36   21   39 1
    37   22   26 1
    38   22   23 2
    39   23   24 1
    40   23   40 1
    41   24   25 2
    42   24   41 1
    43   25   26 1
    44   25   42 1
@<TRIPOS>MOLECULE
ZINC41121549
   45    47     0     0     0
SMALL
USER_CHARGES

@<TRIPOS>ATOM
      1 C1         -0.0184    1.5028    0.0103 C.3       1 <0>        -0.0862
      2 C2          0.0021   -0.0041    0.0020 C.2       1 <0>         0.0123
      3 C3          0.0085   -0.8010   -1.0921 C.2       1 <0>        -0.1778
      4 C4          0.0294   -2.1257   -0.5950 C.2       1 <0>        -0.0185
      5 N1          0.0340   -2.0428    0.7204 N.2       1 <0>        -0.2638
      6 N2          0.0233   -0.8109    1.0846 N.pl3     1 <0>        -0.2801
      7 C5          0.0295   -0.3480    2.4746 C.3       1 <0>         0.0832
      8 C6          0.0426   -3.3656   -1.3977 C.2       1 <0>         0.6076
      9 O1          0.0357   -3.3039   -2.6118 O.2       1 <0>        -0.5277
     10 N3          0.0623   -4.5654   -0.7840 N.am      1 <0>        -0.7211
     11 C7          0.0754   -5.7952   -1.5801 C.3       1 <0>         0.1244
     12 C8          0.0969   -7.0070   -0.6463 C.3       1 <0>        -0.1477
     13 C9          0.1106   -8.2913   -1.4777 C.3       1 <0>         0.1362
     14 N4          0.1311   -9.4517   -0.5835 N.pl3     1 <0>        -0.7134
     15 C10         0.1463  -10.7354   -1.1123 C.ar      1 <0>         0.4442
     16 C11         0.1601  -11.8495   -0.2769 C.ar      1 <0>        -0.0733
     17 C12         0.1775  -13.1170   -0.8603 C.ar      1 <0>         0.4342
     18 N5          0.1754  -13.2248   -2.1823 N.ar      1 <0>        -0.5703
     19 C13         0.1613  -12.1445   -2.9407 C.ar      1 <0>         0.3577
     20 N6          0.1424  -10.9294   -2.4311 N.ar      1 <0>        -0.5735
     21 N7          0.2034  -14.2335   -0.0331 N.pl3     1 <0>        -0.7226
     22 C14         0.8420  -14.1024    1.2849 C.3       1 <0>         0.1193
     23 C15         0.4459  -12.7835    1.8981 C.2       1 <0>         0.5067
     24 O2          0.3896  -12.6745    3.1050 O.2       1 <0>        -0.5215
     25 N8          0.1540  -11.7237    1.1175 N.am      1 <0>        -0.6428
     26 H1          1.0042    1.8801    0.0026 H         1 <0>         0.0802
     27 H2         -0.5455    1.8639   -0.8728 H         1 <0>         0.0884
     28 H3         -0.5286    1.8543    0.9071 H         1 <0>         0.0711
     29 H4         -0.0007   -0.4911   -2.1267 H         1 <0>         0.1633
     30 H5         -0.9965   -0.2476    2.8287 H         1 <0>         0.0867
     31 H6          0.5592   -1.0702    3.0957 H         1 <0>         0.0981
     32 H7          0.5303    0.6184    2.5335 H         1 <0>         0.0971
     33 H8          0.0678   -4.6147    0.1847 H         1 <0>         0.4070
     34 H9         -0.8173   -5.8334   -2.2044 H         1 <0>         0.0760
     35 H10         0.9625   -5.8087   -2.2133 H         1 <0>         0.0760
     36 H11         0.9895   -6.9688   -0.0219 H         1 <0>         0.0780
     37 H12        -0.7902   -6.9935   -0.0131 H         1 <0>         0.0780
     38 H13        -0.7821   -8.3295   -2.1020 H         1 <0>         0.0760
     39 H14         0.9977   -8.3048   -2.1109 H         1 <0>         0.0760
     40 H15         0.1341   -9.3231    0.3779 H         1 <0>         0.4058
     41 H16         0.1604  -12.2605   -4.0144 H         1 <0>         0.2039
     42 H17        -0.1879  -15.0744   -0.3170 H         1 <0>         0.4212
     43 H18         0.5149  -14.9172    1.9308 H         1 <0>         0.1275
     44 H19         1.9253  -14.1399    1.1702 H         1 <0>         0.0986
     45 H20        -0.0611  -10.8697    1.5240 H         1 <0>         0.4058
@<TRIPOS>BOND
     1    1    2 1
     2    1   26 1
     3    1   27 1
     4    1   28 1
     5    2    6 1
     6    2    3 2
     7    3    4 1
     8    3   29 1
     9    4    5 2
    10    4    8 1
    11    5    6 1
    12    6    7 1
    13    7   30 1
    14    7   31 1
    15    7   32 1
    16    8    9 2
    17    8   10 am
    18   10   11 1
    19   10   33 1
    20   11   12 1
    21   11   34 1
    22   11   35 1
    23   12   13 1
    24   12   36 1
    25   12   37 1
    26   13   14 1
    27   13   38 1
    28   13   39 1
    29   14   15 1
    30   14   40 1
    31   15   20 ar
    32   15   16 ar
    33   16   25 1
    34   16   17 ar
    35   17   18 ar
    36   17   21 1
    37   18   19 ar
    38   19   20 ar
    39   19   41 1
    40   21   22 1
    41   21   42 1
    42   22   23 1
    43   22   43 1
    44   22   44 1
    45   23   24 2
    46   23   25 am
    47   25   45 1
@<TRIPOS>MOLECULE
ZINC52357747
   43    45     0     0     0
SMALL
USER_CHARGES

@<TRIPOS>ATOM
      1 C1         -0.0164    1.3569    0.0095 C.2       1 <0>        -0.0673
      2 C2          1.1939    2.0686    0.0018 C.2       1 <0>        -0.1340
      3 C3          2.3716    1.4084   -0.0135 C.2       1 <0>         0.0627
      4 N1          2.4036    0.0447   -0.0211 N.pl3     1 <0>        -0.3317
      5 C4          1.2390   -0.6775   -0.0134 C.2       1 <0>         0.3071
      6 C5          0.0021   -0.0041    0.0020 C.2       1 <0>        -0.0945
      7 N2          1.5517   -1.9672   -0.0234 N.2       1 <0>        -0.5133
      8 C6          2.8828   -2.0971   -0.0374 C.2       1 <0>         0.4307
      9 C7          3.4363   -0.8573   -0.0362 C.2       1 <0>        -0.1233
     10 N3          4.8875   -0.5381   -0.0496 N.pl3     1 <0>         0.0573
     11 O1          5.4887   -0.4133    0.9918 O.2       1 <0>        -0.1206
     12 O2          5.4670   -0.4031   -1.1021 O.3       1 <0>        -0.1207
     13 N4          3.5870   -3.3079   -0.0501 N.pl3     1 <0>        -0.7081
     14 C8          2.8586   -4.5790   -0.0494 C.3       1 <0>         0.1748
     15 C9          3.8415   -5.7212   -0.0646 C.ar      1 <0>        -0.0881
     16 C10         4.2835   -6.2336   -1.2714 C.ar      1 <0>        -0.1040
     17 C11         5.1832   -7.2792   -1.2923 C.ar      1 <0>        -0.0582
     18 C12         5.6476   -7.8202   -0.0924 C.ar      1 <0>        -0.1247
     19 C13         5.1977   -7.2986    1.1216 C.ar      1 <0>        -0.0854
     20 C14         4.3022   -6.2492    1.1284 C.ar      1 <0>        -0.1032
     21 C15         6.6115   -8.9411   -0.1072 C.2       1 <0>         0.5626
     22 O3          7.0013   -9.3936   -1.1659 O.2       1 <0>        -0.5322
     23 N5          7.0580   -9.4613    1.0531 N.am      1 <0>        -0.7162
     24 C16         8.0132  -10.5721    1.0384 C.3       1 <0>         0.0975
     25 C17         8.3494  -10.9642    2.4541 C.2       1 <0>         0.5143
     26 O4          7.8413  -10.3740    3.3838 O.2       1 <0>        -0.5397
     27 N6          9.2149  -11.9708    2.6871 N.am      1 <0>        -0.8470
     28 H1         -0.9573    1.8867    0.0258 H         1 <0>         0.1563
     29 H2          1.1827    3.1485    0.0077 H         1 <0>         0.1635
     30 H3          3.2970    1.9652   -0.0200 H         1 <0>         0.1641
     31 H4         -0.9226   -0.5620    0.0082 H         1 <0>         0.1663
     32 H5          4.5570   -3.3048   -0.0595 H         1 <0>         0.4131
     33 H6          2.2407   -4.6431    0.8462 H         1 <0>         0.0814
     34 H7          2.2236   -4.6343   -0.9336 H         1 <0>         0.0816
     35 H8          3.9230   -5.8143   -2.1991 H         1 <0>         0.1346
     36 H9          5.5271   -7.6784   -2.2350 H         1 <0>         0.1415
     37 H10         5.5532   -7.7128    2.0535 H         1 <0>         0.1320
     38 H11         3.9567   -5.8418    2.0671 H         1 <0>         0.1338
     39 H12         6.7470   -9.1003    1.8980 H         1 <0>         0.4126
     40 H13         7.5721  -11.4237    0.5205 H         1 <0>         0.1045
     41 H14         8.9217  -10.2632    0.5214 H         1 <0>         0.1046
     42 H15         9.6213  -12.4429    1.9435 H         1 <0>         0.4067
     43 H16         9.4313  -12.2232    3.5983 H         1 <0>         0.4086
@<TRIPOS>BOND
     1    1    6 2
     2    1    2 1
     3    1   28 1
     4    2    3 2
     5    2   29 1
     6    3    4 1
     7    3   30 1
     8    4    9 1
     9    4    5 1
    10    5    6 1
    11    5    7 2
    12    6   31 1
    13    7    8 1
    14    8    9 2
    15    8   13 1
    16    9   10 1
    17   10   11 2
    18   10   12 1
    19   13   14 1
    20   13   32 1
    21   14   15 1
    22   14   33 1
    23   14   34 1
    24   15   20 ar
    25   15   16 ar
    26   16   17 ar
    27   16   35 1
    28   17   18 ar
    29   17   36 1
    30   18   19 ar
    31   18   21 1
    32   19   20 ar
    33   19   37 1
    34   20   38 1
    35   21   22 2
    36   21   23 am
    37   23   24 1
    38   23   39 1
    39   24   25 1
    40   24   40 1
    41   24   41 1
    42   25   26 2
    43   25   27 am
    44   27   42 1
    45   27   43 1
@<TRIPOS>MOLECULE
ZINC64643360
   43    43     0     0     0
SMALL
USER_CHARGES

@<TRIPOS>ATOM
      1 C1          0.0180   -1.1779   -0.0044 C.1       1 <0>        -0.1605
      2 C2          0.0021   -0.0041    0.0020 C.1       1 <0>        -0.2183
      3 C3         -0.0179    1.4678    0.0101 C.3       1 <0>         0.2306
      4 N1          1.3565    1.9749   -0.0003 N.am      1 <0>        -0.7295
      5 C4          1.5848    3.3031    0.0047 C.2       1 <0>         0.5201
      6 O1          0.6524    4.0786    0.0177 O.2       1 <0>        -0.5284
      7 C5          2.9986    3.8248   -0.0060 C.3       1 <0>        -0.1528
      8 C6          2.9778    5.3546    0.0024 C.3       1 <0>         0.1521
      9 N2          4.3523    5.8617   -0.0080 N.am      1 <0>        -0.7463
     10 C7          4.5805    7.1900   -0.0031 C.2       1 <0>         0.7069
     11 O2          3.6458    7.9674    0.0100 O.2       1 <0>        -0.5802
     12 N3          5.8449    7.6565   -0.0126 N.am      1 <0>        -0.7451
     13 C8          6.0931    9.1003   -0.0072 C.3       1 <0>         0.1283
     14 C9          7.6010    9.3587   -0.0203 C.3       1 <0>         0.1059
     15 N4          7.8492   10.8025   -0.0149 N.pl3     1 <0>        -0.7264
     16 C10         9.1595   11.2859   -0.0248 C.ar      1 <0>         0.2665
     17 C11        10.2286   10.3992   -0.0456 C.ar      1 <0>        -0.1989
     18 C12        11.5229   10.8806   -0.0558 C.ar      1 <0>        -0.0030
     19 C13        11.7554   12.2437   -0.0454 C.ar      1 <0>        -0.1108
     20 C14        10.6935   13.1293   -0.0247 C.ar      1 <0>        -0.0038
     21 C15         9.3966   12.6547   -0.0197 C.ar      1 <0>        -0.1930
     22 N5         13.1439   12.7560   -0.0559 N.pl3     1 <0>         0.0438
     23 O3         14.0733   11.9830   -0.0736 O.2       1 <0>        -0.1727
     24 O4         13.3488   13.9474   -0.0468 O.3       1 <0>        -0.1715
     25 H1          0.0322   -2.2278   -0.0102 H         1 <0>         0.2234
     26 H2         -0.5451    1.8289   -0.8729 H         1 <0>         0.0943
     27 H3         -0.5281    1.8193    0.9069 H         1 <0>         0.0943
     28 H4          2.1022    1.3546   -0.0107 H         1 <0>         0.4053
     29 H5          3.5258    3.4637    0.8770 H         1 <0>         0.1036
     30 H6          3.5088    3.4732   -0.9028 H         1 <0>         0.1036
     31 H7          2.4507    5.7157   -0.8807 H         1 <0>         0.0784
     32 H8          2.4677    5.7061    0.8992 H         1 <0>         0.0784
     33 H9          5.0980    5.2414   -0.0185 H         1 <0>         0.3967
     34 H10         6.5907    7.0362   -0.0231 H         1 <0>         0.3987
     35 H11         5.6397    9.5502   -0.8905 H         1 <0>         0.0765
     36 H12         5.6567    9.5406    0.8893 H         1 <0>         0.0765
     37 H13         8.0544    8.9088    0.8630 H         1 <0>         0.0757
     38 H14         8.0374    8.9184   -0.9168 H         1 <0>         0.0757
     39 H15         7.1034   11.4227   -0.0044 H         1 <0>         0.4112
     40 H16        10.0477    9.3344   -0.0533 H         1 <0>         0.1434
     41 H17        12.3545   10.1916   -0.0716 H         1 <0>         0.1523
     42 H18        10.8786   14.1932   -0.0163 H         1 <0>         0.1532
     43 H19         8.5677   13.3469   -0.0077 H         1 <0>         0.1456
@<TRIPOS>BOND
     1    1    2 3
     2    1   25 1
     3    2    3 1
     4    3    4 1
     5    3   26 1
     6    3   27 1
     7    4    5 am
     8    4   28 1
     9    5    6 2
    10    5    7 1
    11    7    8 1
    12    7   29 1
    13    7   30 1
    14    8    9 1
    15    8   31 1
    16    8   32 1
    17    9   10 am
    18    9   33 1
    19   10   11 2
    20   10   12 am
    21   12   13 1
    22   12   34 1
    23   13   14 1
    24   13   35 1
    25   13   36 1
    26   14   15 1
    27   14   37 1
    28   14   38 1
    29   15   16 1
    30   15   39 1
    31   16   21 ar
    32   16   17 ar
    33   17   18 ar
    34   17   40 1
    35   18   19 ar
    36   18   41 1
    37   19   20 ar
    38   19   22 1
    39   20   21 ar
    40   20   42 1
    41   21   43 1
    42   22   23 2
    43   22   24 1
@<TRIPOS>MOLECULE
ZINC67078412
   47    49     0     0     0
SMALL
USER_CHARGES

@<TRIPOS>ATOM
      1 C1          1.2275    1.6338   -0.0347 C.3       1 <0>        -0.1336
      2 C2          1.5672    0.1656   -0.0508 C.ar      1 <0>         0.0431
      3 C3          1.7503   -0.4885   -1.2518 C.ar      1 <0>        -0.1508
      4 C4          2.0621   -1.8362   -1.2684 C.ar      1 <0>         0.0475
      5 C5          2.1925   -2.5371   -0.0824 C.ar      1 <0>        -0.6944
      6 C6          2.0125   -1.8951    1.1251 C.ar      1 <0>         0.0243
      7 C7          1.7029   -0.5341    1.1490 C.ar      1 <0>        -0.1686
      8 C8          1.5141    0.1618    2.4397 C.2       1 <0>         0.5646
      9 O1          1.3550    1.3667    2.4630 O.2       1 <0>        -0.5179
     10 N1          1.5184   -0.5397    3.5905 N.am      1 <0>        -0.7306
     11 C9          1.3313    0.1499    4.8694 C.3       1 <0>         0.1285
     12 C10         1.3779   -0.8691    6.0098 C.3       1 <0>        -0.0597
     13 C11         1.1855   -0.1598    7.3254 C.2       1 <0>         0.2851
     14 N2          1.0023    1.1126    7.4752 N.2       1 <0>        -0.2663
     15 N3          0.8663    1.3755    8.8453 N.pl3     1 <0>        -0.4684
     16 C12         0.9784    0.1969    9.4930 C.2       1 <0>         0.4686
     17 N4          1.1699   -0.7584    8.5612 N.pl3     1 <0>        -0.4590
     18 C13         1.3365   -2.1902    8.8226 C.3       1 <0>         0.0363
     19 C14         1.6639   -2.6132   10.2560 C.3       1 <0>        -0.1869
     20 C15         0.2726   -2.8805    9.6784 C.3       1 <0>        -0.1637
     21 S1          0.8867   -0.0422   11.1857 S.2       1 <0>        -0.5578
     22 S2          2.5888   -4.2537   -0.1148 S.o2      1 <0>         2.7038
     23 O2          3.6978   -4.3980   -0.9915 O.2       1 <0>        -0.9541
     24 O3          2.6255   -4.6876    1.2378 O.2       1 <0>        -0.9649
     25 N5          1.3161   -5.0366   -0.8287 N.pl3     1 <0>        -1.2500
     26 C16         2.2603   -2.5442   -2.5839 C.3       1 <0>        -0.1539
     27 H1          2.1379    2.2157    0.1092 H         1 <0>         0.0876
     28 H2          0.7655    1.9103   -0.9824 H         1 <0>         0.0672
     29 H3          0.5336    1.8372    0.7809 H         1 <0>         0.1023
     30 H4          1.6496    0.0527   -2.1810 H         1 <0>         0.1440
     31 H5          2.1145   -2.4432    2.0500 H         1 <0>         0.1474
     32 H6          1.6453   -1.5012    3.5719 H         1 <0>         0.4027
     33 H7          2.1252    0.8842    5.0058 H         1 <0>         0.0856
     34 H8          0.3652    0.6545    4.8723 H         1 <0>         0.0856
     35 H9          0.5840   -1.6035    5.8735 H         1 <0>         0.1157
     36 H10         2.3440   -1.3737    6.0070 H         1 <0>         0.1149
     37 H11         1.7831   -2.7671    8.0128 H         1 <0>         0.1527
     38 H12         2.3263   -3.4685   10.3895 H         1 <0>         0.1054
     39 H13         1.7554   -1.8262   11.0046 H         1 <0>         0.1671
     40 H14        -0.5513   -2.2694   10.0470 H         1 <0>         0.1077
     41 H15         0.0196   -3.9117    9.4319 H         1 <0>         0.1113
     42 H16         0.7193    2.2436    9.2524 H         1 <0>         0.4708
     43 H17         0.5458   -4.5322   -1.1336 H         1 <0>         0.4175
     44 H18         1.3409   -5.9997   -0.9418 H         1 <0>         0.4237
     45 H19         3.3090   -2.4836   -2.8748 H         1 <0>         0.1055
     46 H20         1.9717   -3.5902   -2.4806 H         1 <0>         0.0745
     47 H21         1.6434   -2.0709   -3.3478 H         1 <0>         0.0897
@<TRIPOS>BOND
     1    1    2 1
     2    1   27 1
     3    1   28 1
     4    1   29 1
     5    2    7 ar
     6    2    3 ar
     7    3    4 ar
     8    3   30 1
     9    4    5 ar
    10    4   26 1
    11    5    6 ar
    12    5   22 1
    13    6    7 ar
    14    6   31 1
    15    7    8 1
    16    8    9 2
    17    8   10 am
    18   10   11 1
    19   10   32 1
    20   11   12 1
    21   11   33 1
    22   11   34 1
    23   12   35 1
    24   12   36 1
    25   12   13 1
    26   13   17 1
    27   13   14 2
    28   14   15 1
    29   15   16 1
    30   15   42 1
    31   16   21 2
    32   16   17 1
    33   17   18 1
    34   18   20 1
    35   18   19 1
    36   18   37 1
    37   19   20 1
    38   19   38 1
    39   19   39 1
    40   20   40 1
    41   20   41 1
    42   22   23 2
    43   22   24 2
    44   22   25 1
    45   25   43 1
    46   25   44 1
    47   26   45 1
    48   26   46 1
    49   26   47 1
@<TRIPOS>MOLECULE
ZINC26677491
   47    47     0     0     0
SMALL
USER_CHARGES
4-fluoro-N-[(1R)-2-methyl-1-[(propylcarbamothioylamino)carbamoyl]propyl]benzamide
@<TRIPOS>ATOM
      1 C1          2.2797  -12.3318   -2.4123 C.3       1 <0>        -0.1518
      2 C2          2.2430  -10.8633   -1.9844 C.3       1 <0>        -0.1383
      3 C3          3.5263  -10.1667   -2.4412 C.3       1 <0>         0.1223
      4 N1          3.4911   -8.7606   -2.0315 N.pl3     1 <0>        -0.6937
      5 C4          4.5233   -7.9463   -2.3281 C.2       1 <0>         0.5661
      6 S1          5.8755   -8.5550   -3.1836 S.2       1 <0>        -0.6038
      7 N2          4.4909   -6.6527   -1.9511 N.pl3     1 <0>        -0.4834
      8 N3          3.3844   -6.1546   -1.2510 N.am      1 <0>        -0.5515
      9 C5          3.3520   -4.8610   -0.8740 C.2       1 <0>         0.5259
     10 O1          4.2368   -4.1066   -1.2188 O.2       1 <0>        -0.5218
     11 C6          2.2164   -4.3520   -0.0241 C.3       1 <0>         0.1500
     12 H1          1.2832   -4.8622   -0.3048 H         1 <0>         0.1145
     13 C7          2.5436   -4.5787    1.4532 C.3       1 <0>        -0.0976
     14 C8          1.3703   -4.1059    2.3138 C.3       1 <0>        -0.1404
     15 C9          2.7882   -6.0689    1.6986 C.3       1 <0>        -0.1612
     16 N4          2.0275   -2.9199   -0.2683 N.am      1 <0>        -0.7269
     17 C10         0.8254   -2.3516   -0.0481 C.2       1 <0>         0.5701
     18 O2         -0.1021   -3.0273    0.3531 O.2       1 <0>        -0.5282
     19 C11         0.6349   -0.9075   -0.2944 C.ar      1 <0>        -0.1498
     20 C12        -0.6096   -0.3161   -0.0670 C.ar      1 <0>        -0.0278
     21 C13        -0.7820    1.0317   -0.2989 C.ar      1 <0>        -0.1613
     22 C14         0.2775    1.8000   -0.7569 C.ar      1 <0>         0.1297
     23 C15         1.5152    1.2178   -0.9842 C.ar      1 <0>        -0.1603
     24 C16         1.6985   -0.1290   -0.7557 C.ar      1 <0>        -0.0545
     25 F1          0.1031    3.1205   -0.9826 F         1 <0>        -0.1312
     26 H2          1.3570  -12.8326   -2.0838 H         1 <0>         0.0634
     27 H3          3.1485  -12.8259   -1.9530 H         1 <0>         0.0620
     28 H4          2.3599  -12.3926   -3.5077 H         1 <0>         0.0619
     29 H5          1.3742  -10.3692   -2.4437 H         1 <0>         0.0694
     30 H6          2.1627  -10.8024   -0.8890 H         1 <0>         0.0697
     31 H7          4.3951  -10.6608   -1.9819 H         1 <0>         0.0901
     32 H8          3.6066  -10.2276   -3.5366 H         1 <0>         0.0897
     33 H9          2.6223   -8.3695   -1.4818 H         1 <0>         0.4037
     34 H10         5.3333   -5.9880   -2.1931 H         1 <0>         0.4889
     35 H11         2.5420   -6.8193   -1.0090 H         1 <0>         0.4397
     36 H12         3.4466   -4.0102    1.7202 H         1 <0>         0.0837
     37 H13         1.6056   -4.2689    3.3759 H         1 <0>         0.0564
     38 H14         0.4673   -4.6744    2.0468 H         1 <0>         0.0675
     39 H15         1.1946   -3.0345    2.1374 H         1 <0>         0.0588
     40 H16         3.0234   -6.2318    2.7607 H         1 <0>         0.0720
     41 H17         3.6318   -6.4087    1.0799 H         1 <0>         0.0571
     42 H18         1.8852   -6.6375    1.4316 H         1 <0>         0.0619
     43 H19         2.8668   -2.3085   -0.6314 H         1 <0>         0.4331
     44 H20        -1.4354   -0.9135    0.2901 H         1 <0>         0.1482
     45 H21        -1.7452    1.4892   -0.1276 H         1 <0>         0.1454
     46 H22         2.3372    1.8209   -1.3407 H         1 <0>         0.1448
     47 H23         2.6631   -0.5814   -0.9328 H         1 <0>         0.1374
@<TRIPOS>BOND
     1    1    2 1
     2    1   26 1
     3    1   27 1
     4    1   28 1
     5    2    3 1
     6    2   29 1
     7    2   30 1
     8    3    4 1
     9    3   31 1
    10    3   32 1
    11    4    5 1
    12    4   33 1
    13    5    6 2
    14    5    7 1
    15    7    8 1
    16    7   34 1
    17    8    9 am
    18    8   35 1
    19    9   10 2
    20    9   11 1
    21   11   12 1
    22   11   13 1
    23   11   16 1
    24   13   14 1
    25   13   15 1
    26   13   36 1
    27   14   37 1
    28   14   38 1
    29   14   39 1
    30   15   40 1
    31   15   41 1
    32   15   42 1
    33   16   17 am
    34   16   43 1
    35   17   18 2
    36   17   19 1
    37   19   24 ar
    38   19   20 ar
    39   20   21 ar
    40   20   44 1
    41   21   22 ar
    42   21   45 1
    43   22   23 ar
    44   22   25 1
    45   23   24 ar
    46   23   46 1
    47   24   47 1
@<TRIPOS>MOLECULE
ZINC44739370
   55    55     0     0     0
SMALL
USER_CHARGES

@<TRIPOS>ATOM
      1 C1         -0.0187    1.5258    0.0104 C.3       1 <0>        -0.1502
      2 C2          0.0021   -0.0041    0.0020 C.3       1 <0>        -0.1238
      3 C3         -1.4333   -0.5336    0.0129 C.3       1 <0>         0.0572
      4 O1         -1.4139   -1.9625    0.0050 O.3       1 <0>        -0.3040
      5 C4         -2.6171   -2.5963    0.0131 C.ar      1 <0>         0.1057
      6 C5         -3.7903   -1.8590    0.0225 C.ar      1 <0>        -0.1689
      7 C6         -5.0125   -2.5049    0.0302 C.ar      1 <0>        -0.1104
      8 C7         -5.0679   -3.8863    0.0291 C.ar      1 <0>        -0.0898
      9 C8         -3.9012   -4.6279    0.0202 C.ar      1 <0>        -0.1594
     10 C9         -2.6729   -3.9867    0.0062 C.ar      1 <0>         0.1052
     11 O2         -1.5243   -4.7147   -0.0086 O.3       1 <0>        -0.3048
     12 C10        -1.6580   -6.1375   -0.0150 C.3       1 <0>         0.0244
     13 C11        -6.4029   -4.5853    0.0380 C.3       1 <0>         0.1904
     14 H1         -6.2744   -5.6097    0.3874 H         1 <0>         0.0958
     15 C12        -6.9813   -4.5983   -1.3784 C.3       1 <0>        -0.1567
     16 N1         -7.3198   -3.8754    0.9333 N.am      1 <0>        -0.7273
     17 C13        -8.3517   -4.5318    1.4998 C.2       1 <0>         0.5020
     18 O3         -8.5212   -5.7101    1.2683 O.2       1 <0>        -0.4966
     19 C14        -9.2948   -3.8015    2.4207 C.3       1 <0>         0.1618
     20 H2         -9.4931   -2.8062    2.0231 H         1 <0>         0.1110
     21 C15        -8.6608   -3.6795    3.8078 C.3       1 <0>        -0.1200
     22 C16        -9.5618   -2.8313    4.7076 C.3       1 <0>        -0.0786
     23 S1         -8.8101   -2.6867    6.3522 S.3       1 <0>        -0.2589
     24 C17        -9.9855   -1.6664    7.2838 C.3       1 <0>        -0.1216
     25 N2        -10.5524   -4.5461    2.5224 N.am      1 <0>        -0.7362
     26 C18       -10.5514   -5.8094    2.9922 C.2       1 <0>         0.7106
     27 O4         -9.5069   -6.3310    3.3317 O.2       1 <0>        -0.5609
     28 N3        -11.7083   -6.4944    3.0858 N.am      1 <0>        -0.8693
     29 H3          1.0039    1.9031    0.0027 H         1 <0>         0.0654
     30 H4         -0.5459    1.8868   -0.8726 H         1 <0>         0.0575
     31 H5         -0.5289    1.8773    0.9072 H         1 <0>         0.0577
     32 H6          0.5123   -0.3556   -0.8948 H         1 <0>         0.0740
     33 H7          0.5293   -0.3651    0.8851 H         1 <0>         0.0743
     34 H8         -1.9435   -0.1821    0.9097 H         1 <0>         0.0619
     35 H9         -1.9605   -0.1726   -0.8702 H         1 <0>         0.0616
     36 H10        -3.7498   -0.7798    0.0241 H         1 <0>         0.1366
     37 H11        -5.9262   -1.9291    0.0375 H         1 <0>         0.1252
     38 H12        -3.9472   -5.7069    0.0197 H         1 <0>         0.1377
     39 H13        -0.6689   -6.5953   -0.0268 H         1 <0>         0.1023
     40 H14        -2.1951   -6.4559    0.8784 H         1 <0>         0.0564
     41 H15        -2.2120   -6.4464   -0.9014 H         1 <0>         0.0559
     42 H16        -6.2991   -5.1265   -2.0445 H         1 <0>         0.0674
     43 H17        -7.9469   -5.1039   -1.3719 H         1 <0>         0.0640
     44 H18        -7.1098   -3.5739   -1.7278 H         1 <0>         0.0594
     45 H19        -7.1842   -2.9329    1.1185 H         1 <0>         0.3976
     46 H20        -8.5441   -4.6722    4.2426 H         1 <0>         0.1080
     47 H21        -7.6838   -3.2041    3.7202 H         1 <0>         0.0849
     48 H22        -9.6785   -1.8386    4.2729 H         1 <0>         0.0803
     49 H23       -10.5388   -3.3067    4.7953 H         1 <0>         0.0813
     50 H24       -10.0933   -0.6981    6.7949 H         1 <0>         0.0761
     51 H25       -10.9536   -2.1662    7.3173 H         1 <0>         0.0755
     52 H26        -9.6160   -1.5217    8.2990 H         1 <0>         0.1029
     53 H27       -11.3857   -4.1300    2.2516 H         1 <0>         0.4003
     54 H28       -12.5416   -6.0783    2.8150 H         1 <0>         0.3936
     55 H29       -11.7077   -7.4036    3.4239 H         1 <0>         0.4154
@<TRIPOS>BOND
     1    1    2 1
     2    1   29 1
     3    1   30 1
     4    1   31 1
     5    2    3 1
     6    2   32 1
     7    2   33 1
     8    3    4 1
     9    3   34 1
    10    3   35 1
    11    4    5 1
    12    5   10 ar
    13    5    6 ar
    14    6    7 ar
    15    6   36 1
    16    7    8 ar
    17    7   37 1
    18    8    9 ar
    19    8   13 1
    20    9   10 ar
    21    9   38 1
    22   10   11 1
    23   11   12 1
    24   12   39 1
    25   12   40 1
    26   12   41 1
    27   13   14 1
    28   13   15 1
    29   13   16 1
    30   15   42 1
    31   15   43 1
    32   15   44 1
    33   16   17 am
    34   16   45 1
    35   17   18 2
    36   17   19 1
    37   19   20 1
    38   19   21 1
    39   19   25 1
    40   21   22 1
    41   21   46 1
    42   21   47 1
    43   22   23 1
    44   22   48 1
    45   22   49 1
    46   23   24 1
    47   24   50 1
    48   24   51 1
    49   24   52 1
    50   25   26 am
    51   25   53 1
    52   26   27 2
    53   26   28 am
    54   28   54 1
    55   28   55 1
@<TRIPOS>MOLECULE
ZINC54737377
   55    55     0     0     0
SMALL
USER_CHARGES

@<TRIPOS>ATOM
      1 C1          0.1466    1.3628   -0.5638 C.3       1 <0>        -0.1404
      2 C2          0.0701   -0.1068   -0.1450 C.3       1 <0>        -0.1029
      3 C3          0.8974   -0.3190    1.1244 C.3       1 <0>        -0.1521
      4 C4         -1.3874   -0.4844    0.1271 C.3       1 <0>         0.1403
      5 H1         -1.7502    0.0683    0.9938 H         1 <0>         0.0979
      6 C5         -1.4821   -1.9862    0.4038 C.3       1 <0>         0.1244
      7 N1         -2.8890   -2.3687    0.5462 N.am      1 <0>        -0.7411
      8 C6         -3.2165   -3.6521    0.7955 C.2       1 <0>         0.7036
      9 O1         -2.3442   -4.4924    0.9021 O.2       1 <0>        -0.5860
     10 N2         -4.5109   -4.0041    0.9266 N.am      1 <0>        -0.7487
     11 C7         -4.8669   -5.3991    1.1975 C.3       1 <0>         0.1539
     12 C8         -6.3881   -5.5266    1.2998 C.3       1 <0>        -0.1533
     13 C9         -6.7543   -6.9617    1.5785 C.2       1 <0>         0.5179
     14 O2         -5.8842   -7.7998    1.6848 O.2       1 <0>        -0.5333
     15 N3         -8.0487   -7.3136    1.7095 N.am      1 <0>        -0.7260
     16 C10        -8.4046   -8.7086    1.9805 C.3       1 <0>         0.1207
     17 C11        -9.9259   -8.8362    2.0827 C.3       1 <0>         0.0467
     18 O3        -10.5153   -8.5347    0.8163 O.3       1 <0>        -0.3905
     19 C12       -11.9414   -8.6249    0.8028 C.3       1 <0>         0.0301
     20 N4         -2.2047   -0.1507   -1.0420 N.pl3     1 <0>        -0.7402
     21 C13        -3.2835    0.7270   -0.9125 C.ar      1 <0>         0.2177
     22 C14        -3.6813    1.1601    0.3460 C.ar      1 <0>        -0.2064
     23 C15        -4.7480    2.0284    0.4705 C.ar      1 <0>        -0.0706
     24 C16        -5.4203    2.4662   -0.6559 C.ar      1 <0>        -0.1792
     25 C17        -5.0269    2.0369   -1.9102 C.ar      1 <0>        -0.0705
     26 C18        -3.9574    1.1732   -2.0422 C.ar      1 <0>        -0.1946
     27 H2          1.1911    1.6597   -0.6586 H         1 <0>         0.0557
     28 H3         -0.3568    1.4942   -1.5216 H         1 <0>         0.0571
     29 H4         -0.3400    1.9813    0.1903 H         1 <0>         0.0535
     30 H5          0.4646   -0.7336   -0.9448 H         1 <0>         0.0761
     31 H6          0.5030    0.3078    1.9242 H         1 <0>         0.0575
     32 H7          0.8430   -1.3659    1.4228 H         1 <0>         0.0611
     33 H8          1.9358   -0.0500    0.9306 H         1 <0>         0.0615
     34 H9         -1.0379   -2.5370   -0.4253 H         1 <0>         0.0689
     35 H10        -0.9469   -2.2205    1.3240 H         1 <0>         0.0787
     36 H11        -3.5849   -1.6983    0.4612 H         1 <0>         0.3970
     37 H12        -5.2068   -3.3337    0.8415 H         1 <0>         0.3950
     38 H13        -4.5029   -6.0309    0.3873 H         1 <0>         0.0758
     39 H14        -4.4119   -5.7144    2.1365 H         1 <0>         0.0760
     40 H15        -6.7520   -4.8949    2.1100 H         1 <0>         0.1011
     41 H16        -6.8431   -5.2114    0.3608 H         1 <0>         0.1018
     42 H17        -8.7445   -6.6432    1.6244 H         1 <0>         0.4043
     43 H18        -8.0407   -9.3404    1.1702 H         1 <0>         0.0786
     44 H19        -7.9496   -9.0239    2.9194 H         1 <0>         0.0854
     45 H20       -10.1865   -9.8544    2.3716 H         1 <0>         0.0690
     46 H21       -10.2994   -8.1388    2.8326 H         1 <0>         0.0580
     47 H22       -12.3114   -8.3817   -0.1932 H         1 <0>         0.0884
     48 H23       -12.2439   -9.6387    1.0652 H         1 <0>         0.0438
     49 H24       -12.3567   -7.9232    1.5261 H         1 <0>         0.0429
     50 H25        -1.9967   -0.5393   -1.9061 H         1 <0>         0.4010
     51 H26        -3.1571    0.8180    1.2262 H         1 <0>         0.1202
     52 H27        -5.0578    2.3655    1.4486 H         1 <0>         0.1193
     53 H28        -6.2546    3.1446   -0.5557 H         1 <0>         0.1170
     54 H29        -5.5541    2.3808   -2.7878 H         1 <0>         0.1196
     55 H30        -3.6478    0.8419   -3.0224 H         1 <0>         0.1183
@<TRIPOS>BOND
     1    1    2 1
     2    1   27 1
     3    1   28 1
     4    1   29 1
     5    2    3 1
     6    2    4 1
     7    2   30 1
     8    3   31 1
     9    3   32 1
    10    3   33 1
    11    4    5 1
    12    4    6 1
    13    4   20 1
    14    6    7 1
    15    6   34 1
    16    6   35 1
    17    7    8 am
    18    7   36 1
    19    8    9 2
    20    8   10 am
    21   10   11 1
    22   10   37 1
    23   11   12 1
    24   11   38 1
    25   11   39 1
    26   12   13 1
    27   12   40 1
    28   12   41 1
    29   13   14 2
    30   13   15 am
    31   15   16 1
    32   15   42 1
    33   16   17 1
    34   16   43 1
    35   16   44 1
    36   17   18 1
    37   17   45 1
    38   17   46 1
    39   18   19 1
    40   19   47 1
    41   19   48 1
    42   19   49 1
    43   20   21 1
    44   20   50 1
    45   21   26 ar
    46   21   22 ar
    47   22   23 ar
    48   22   51 1
    49   23   24 ar
    50   23   52 1
    51   24   25 ar
    52   24   53 1
    53   25   26 ar
    54   25   54 1
    55   26   55 1
@<TRIPOS>MOLECULE
ZINC65897779
   46    46     0     0     0
SMALL
USER_CHARGES

@<TRIPOS>ATOM
      1 C1         -0.0187    1.5258    0.0104 C.3       1 <0>        -0.1535
      2 C2          0.0021   -0.0041    0.0020 C.3       1 <0>        -0.1222
      3 C3          0.7182   -0.4975   -1.2568 C.3       1 <0>        -0.1326
      4 C4          0.7390   -2.0273   -1.2652 C.3       1 <0>         0.1330
      5 N1          1.4247   -2.4998   -2.4705 N.am      1 <0>        -0.7440
      6 C5          1.5637   -3.8219   -2.6922 C.2       1 <0>         0.7125
      7 O1          1.1201   -4.6225   -1.8919 O.2       1 <0>        -0.5662
      8 N2          2.1946   -4.2565   -3.8011 N.am      1 <0>        -0.5328
      9 N3          2.7058   -3.3340   -4.7233 N.am      1 <0>        -0.5305
     10 C6          3.3366   -3.7687   -5.8322 C.2       1 <0>         0.5214
     11 O2          3.4618   -4.9584   -6.0317 O.2       1 <0>        -0.5234
     12 C7          3.8865   -2.7764   -6.8241 C.3       1 <0>        -0.1426
     13 C8          4.5483   -3.5261   -7.9820 C.3       1 <0>         0.1389
     14 N4          5.0829   -2.5614   -8.9464 N.pl3     1 <0>        -0.7423
     15 C9          5.7380   -3.0128  -10.0979 C.ar      1 <0>         0.2072
     16 C10         5.8771   -4.3733  -10.3307 C.ar      1 <0>        -0.1590
     17 C11         6.5245   -4.8167  -11.4697 C.ar      1 <0>        -0.0193
     18 C12         7.0341   -3.9060  -12.3781 C.ar      1 <0>        -0.1275
     19 C13         6.8991   -2.5486  -12.1514 C.ar      1 <0>        -0.1516
     20 C14         6.2470   -2.0970  -11.0160 C.ar      1 <0>         0.0604
     21 O3          6.1088   -0.7619  -10.7950 O.3       1 <0>        -0.3207
     22 C15         6.6553    0.1186  -11.7790 C.3       1 <0>         0.0297
     23 Cl1         6.6985   -6.5195  -11.7598 Cl        1 <0>        -0.0685
     24 H1          1.0039    1.9031    0.0027 H         1 <0>         0.0547
     25 H2         -0.5459    1.8868   -0.8726 H         1 <0>         0.0547
     26 H3         -0.5289    1.8773    0.9072 H         1 <0>         0.0575
     27 H4          0.5293   -0.3651    0.8851 H         1 <0>         0.0668
     28 H5         -1.0205   -0.3814    0.0098 H         1 <0>         0.0668
     29 H6          0.1910   -0.1364   -2.1398 H         1 <0>         0.0699
     30 H7          1.7408   -0.1202   -1.2645 H         1 <0>         0.0699
     31 H8          1.2661   -2.3884   -0.3821 H         1 <0>         0.0715
     32 H9         -0.2836   -2.4046   -1.2575 H         1 <0>         0.0715
     33 H10         1.7786   -1.8611   -3.1090 H         1 <0>         0.3907
     34 H11         2.2946   -5.2081   -3.9607 H         1 <0>         0.4447
     35 H12         2.6057   -2.3825   -4.5637 H         1 <0>         0.4198
     36 H13         3.0747   -2.1585   -7.2081 H         1 <0>         0.1092
     37 H14         4.6245   -2.1423   -6.3327 H         1 <0>         0.1092
     38 H15         5.3601   -4.1439   -7.5981 H         1 <0>         0.0731
     39 H16         3.8103   -4.1601   -8.4734 H         1 <0>         0.0731
     40 H17         4.9828   -1.6099   -8.7868 H         1 <0>         0.4070
     41 H18         5.4803   -5.0858   -9.6227 H         1 <0>         0.1408
     42 H19         7.5390   -4.2561  -13.2663 H         1 <0>         0.1334
     43 H20         7.2983   -1.8403  -12.8622 H         1 <0>         0.1372
     44 H21         7.7280   -0.0544  -11.8657 H         1 <0>         0.0558
     45 H22         6.1780   -0.0701  -12.7406 H         1 <0>         0.0559
     46 H23         6.4768    1.1518  -11.4813 H         1 <0>         0.1003
@<TRIPOS>BOND
     1    1    2 1
     2    1   24 1
     3    1   25 1
     4    1   26 1
     5    2    3 1
     6    2   27 1
     7    2   28 1
     8    3    4 1
     9    3   29 1
    10    3   30 1
    11    4    5 1
    12    4   31 1
    13    4   32 1
    14    5    6 am
    15    5   33 1
    16    6    7 2
    17    6    8 am
    18    8    9 1
    19    8   34 1
    20    9   10 am
    21    9   35 1
    22   10   11 2
    23   10   12 1
    24   12   13 1
    25   12   36 1
    26   12   37 1
    27   13   14 1
    28   13   38 1
    29   13   39 1
    30   14   15 1
    31   14   40 1
    32   15   20 ar
    33   15   16 ar
    34   16   17 ar
    35   16   41 1
    36   17   18 ar
    37   17   23 1
    38   18   19 ar
    39   18   42 1
    40   19   20 ar
    41   19   43 1
    42   20   21 1
    43   21   22 1
    44   22   44 1
    45   22   45 1
    46   22   46 1
@<TRIPOS>MOLECULE
ZINC67591245
   55    56     0     0     0
SMALL
USER_CHARGES

@<TRIPOS>ATOM
      1 C1         -0.0184    1.5028    0.0103 C.3       1 <0>        -0.1103
      2 C2          0.0021   -0.0041    0.0020 C.ar      1 <0>        -0.0962
      3 C3          0.0057   -0.6888   -1.1978 C.ar      1 <0>        -0.1161
      4 C4          0.0244   -2.0713   -1.2061 C.ar      1 <0>        -0.1140
      5 C5          0.0395   -2.7720   -0.0142 C.ar      1 <0>        -0.1158
      6 C6          0.0359   -2.0919    1.1883 C.ar      1 <0>        -0.0975
      7 C7          0.0230   -0.7047    1.1992 C.ar      1 <0>         0.0872
      8 O1          0.0255   -0.0333    2.3808 O.3       1 <0>        -0.3170
      9 C8         -1.2463    0.2703    2.9572 C.3       1 <0>         0.0350
     10 C9         -1.0431    1.0223    4.2740 C.3       1 <0>         0.1005
     11 H1         -0.3969    0.4387    4.9297 H         1 <0>         0.1168
     12 C10        -2.3973    1.2379    4.9526 C.3       1 <0>         0.1102
     13 N1         -2.2027    1.9579    6.2135 N.am      1 <0>        -0.7380
     14 C11        -3.2638    2.2607    6.9873 C.2       1 <0>         0.7080
     15 O2         -4.3826    1.9362    6.6390 O.2       1 <0>        -0.5885
     16 N2         -3.0847    2.9231    8.1473 N.am      1 <0>        -0.7425
     17 C12        -4.2381    3.2523    8.9885 C.3       1 <0>         0.1283
     18 C13        -3.7626    3.9984   10.2367 C.3       1 <0>         0.1086
     19 N3         -4.9160    4.3275   11.0779 N.am      1 <0>        -0.7249
     20 C14        -4.7369    4.9900   12.2379 C.2       1 <0>         0.5627
     21 O3         -3.6184    5.3143   12.5862 O.2       1 <0>        -0.5319
     22 C15        -5.9009    5.3221   13.0868 C.ar      1 <0>        -0.1388
     23 C16        -7.1860    4.9460   12.6927 C.ar      1 <0>        -0.0865
     24 C17        -8.2678    5.2586   13.4897 C.ar      1 <0>        -0.1271
     25 C18        -8.0811    5.9438   14.6771 C.ar      1 <0>        -0.0914
     26 C19        -6.8099    6.3199   15.0734 C.ar      1 <0>        -0.1269
     27 C20        -5.7189    6.0080   14.2887 C.ar      1 <0>        -0.0586
     28 O4         -0.4354    2.2886    4.0106 O.3       1 <0>        -0.5461
     29 C21         0.0523   -2.8562    2.4870 C.3       1 <0>        -0.1118
     30 H2          1.0042    1.8801    0.0026 H         1 <0>         0.0748
     31 H3         -0.5455    1.8639   -0.8728 H         1 <0>         0.0662
     32 H4         -0.5286    1.8543    0.9071 H         1 <0>         0.0657
     33 H5         -0.0064   -0.1438   -2.1301 H         1 <0>         0.1268
     34 H6          0.0269   -2.6048   -2.1451 H         1 <0>         0.1263
     35 H7          0.0538   -3.8518   -0.0233 H         1 <0>         0.1268
     36 H8         -1.8183    0.8920    2.2684 H         1 <0>         0.0615
     37 H9         -1.7893   -0.6554    3.1476 H         1 <0>         0.0670
     38 H10        -3.0435    1.8215    4.2969 H         1 <0>         0.0738
     39 H11        -2.8608    0.2720    5.1536 H         1 <0>         0.0802
     40 H12        -1.3101    2.2168    6.4914 H         1 <0>         0.4037
     41 H13        -2.1921    3.1820    8.4252 H         1 <0>         0.4010
     42 H14        -4.9279    3.8837    8.4285 H         1 <0>         0.0752
     43 H15        -4.7452    2.3341    9.2852 H         1 <0>         0.0752
     44 H16        -3.0728    3.3670   10.7968 H         1 <0>         0.0779
     45 H17        -3.2555    4.9165    9.9401 H         1 <0>         0.0780
     46 H18        -5.8086    4.0687   10.8000 H         1 <0>         0.4035
     47 H19        -7.3331    4.4118   11.7657 H         1 <0>         0.1260
     48 H20        -9.2626    4.9682   13.1858 H         1 <0>         0.1306
     49 H21        -8.9314    6.1864   15.2972 H         1 <0>         0.1290
     50 H22        -6.6710    6.8548   16.0013 H         1 <0>         0.1317
     51 H23        -4.7267    6.2979   14.6015 H         1 <0>         0.1369
     52 H24        -0.9564    2.8621    3.4320 H         1 <0>         0.3771
     53 H25         1.0838   -3.0266    2.7953 H         1 <0>         0.0746
     54 H26        -0.4658   -2.2805    3.2539 H         1 <0>         0.0655
     55 H27        -0.4492   -3.8144    2.3510 H         1 <0>         0.0674
@<TRIPOS>BOND
     1    1    2 1
     2    1   30 1
     3    1   31 1
     4    1   32 1
     5    2    7 ar
     6    2    3 ar
     7    3    4 ar
     8    3   33 1
     9    4    5 ar
    10    4   34 1
    11    5    6 ar
    12    5   35 1
    13    6    7 ar
    14    6   29 1
    15    7    8 1
    16    8    9 1
    17    9   10 1
    18    9   36 1
    19    9   37 1
    20   10   11 1
    21   10   12 1
    22   10   28 1
    23   12   13 1
    24   12   38 1
    25   12   39 1
    26   13   14 am
    27   13   40 1
    28   14   15 2
    29   14   16 am
    30   16   17 1
    31   16   41 1
    32   17   18 1
    33   17   42 1
    34   17   43 1
    35   18   19 1
    36   18   44 1
    37   18   45 1
    38   19   20 am
    39   19   46 1
    40   20   21 2
    41   20   22 1
    42   22   27 ar
    43   22   23 ar
    44   23   24 ar
    45   23   47 1
    46   24   25 ar
    47   24   48 1
    48   25   26 ar
    49   25   49 1
    50   26   27 ar
    51   26   50 1
    52   27   51 1
    53   28   52 1
    54   29   53 1
    55   29   54 1
    56   29   55 1
@<TRIPOS>MOLECULE
ZINC20922434
   42    44     0     0     0
SMALL
USER_CHARGES
methyl 2-[[2-[(4-amino-5-hydrazino-1,2,4-triazol-3-yl)sulfanyl]acetyl]amino]-5,6-dihydro-4H-cyclopenta[d]thiophene-3-carboxylate
@<TRIPOS>ATOM
      1 C1         -1.2858   -4.3763    1.1048 C.3       1 <0>         0.0273
      2 O1         -0.1813   -3.4360    1.1688 O.3       1 <0>        -0.3512
      3 C2          0.3187   -2.9979   -0.0049 C.2       1 <0>         0.5290
      4 O2         -0.1562   -3.3917   -1.0532 O.2       1 <0>        -0.4927
      5 C3          1.4333   -2.0482   -0.0170 C.2       1 <0>        -0.1945
      6 C4          2.8218   -2.5086   -0.0382 C.2       1 <0>        -0.0928
      7 C5          3.7471   -1.5326   -0.0421 C.2       1 <0>        -0.2333
      8 S1          2.8123   -0.0225   -0.0243 S.3       1 <0>         0.2753
      9 C6          1.2117   -0.6807   -0.0132 C.2       1 <0>         0.0830
     10 N1          0.0021   -0.0041    0.0020 N.am      1 <0>        -0.6266
     11 C7         -0.0162    1.3436    0.0094 C.2       1 <0>         0.5376
     12 O3          1.0257    1.9642    0.0028 O.2       1 <0>        -0.4855
     13 C8         -1.3314    2.0792    0.0197 C.3       1 <0>        -0.1436
     14 S2         -1.0241    3.8670    0.0279 S.3       1 <0>         0.0789
     15 C9         -2.6369    4.5766    0.0394 C.2       1 <0>         0.1687
     16 N2         -3.7694    3.9165    0.0355 N.2       1 <0>        -0.3034
     17 N3         -4.8142    4.8497    0.0504 N.2       1 <0>        -0.3362
     18 C10        -4.2863    6.0489    0.0548 C.2       1 <0>         0.4852
     19 N4         -2.9271    5.9122    0.0481 N.pl3     1 <0>        -0.2656
     20 N5         -2.0176    6.9315    0.0497 N.3       1 <0>        -0.7784
     21 N6         -4.9859    7.2487    0.0644 N.pl3     1 <0>        -0.5793
     22 N7         -6.3519    7.2428    0.0704 N.3       1 <0>        -0.5546
     23 C11         5.1475   -2.0831   -0.0614 C.3       1 <0>        -0.0364
     24 C12         4.9817   -3.5530   -0.5061 C.3       1 <0>        -0.1115
     25 C13         3.5408   -3.8582   -0.0507 C.3       1 <0>        -0.0587
     26 H1         -1.5942   -4.6496    2.1247 H         1 <0>         0.1063
     27 H2         -0.9675   -5.2795    0.5635 H         1 <0>         0.0661
     28 H3         -2.1324   -3.9122    0.5777 H         1 <0>         0.0658
     29 H4         -0.9429   -0.5670    0.0080 H         1 <0>         0.4508
     30 H5         -1.9088    1.8105   -0.8772 H         1 <0>         0.1382
     31 H6         -1.9003    1.8008    0.9191 H         1 <0>         0.1384
     32 H7         -2.3622    7.9761    0.0570 H         1 <0>         0.4367
     33 H8         -0.9406    6.7077    0.0437 H         1 <0>         0.4477
     34 H9         -4.4400    8.2037    0.0672 H         1 <0>         0.4252
     35 H10        -6.7230    8.2783    0.0777 H         1 <0>         0.3587
     36 H11        -6.7203    6.7276   -0.8289 H         1 <0>         0.3339
     37 H12         5.7583   -1.5068   -0.7719 H         1 <0>         0.0806
     38 H13         5.5855   -2.0066    0.9447 H         1 <0>         0.0865
     39 H14         5.1156   -3.6238   -1.5956 H         1 <0>         0.0790
     40 H15         5.7360   -4.1757   -0.0028 H         1 <0>         0.0865
     41 H16         3.5223   -4.2928    0.9596 H         1 <0>         0.0848
     42 H17         3.0334   -4.5375   -0.7514 H         1 <0>         0.0741
@<TRIPOS>BOND
     1    1    2 1
     2    1   26 1
     3    1   27 1
     4    1   28 1
     5    2    3 1
     6    3    4 2
     7    3    5 1
     8    5    9 2
     9    5    6 1
    10    6   25 1
    11    6    7 2
    12    7    8 1
    13    7   23 1
    14    8    9 1
    15    9   10 1
    16   10   11 am
    17   10   29 1
    18   11   12 2
    19   11   13 1
    20   13   14 1
    21   13   30 1
    22   13   31 1
    23   14   15 1
    24   15   19 1
    25   15   16 2
    26   16   17 1
    27   17   18 2
    28   18   19 1
    29   18   21 1
    30   19   20 1
    31   20   32 1
    32   20   33 1
    33   21   22 1
    34   21   34 1
    35   22   35 1
    36   22   36 1
    37   23   24 1
    38   23   37 1
    39   23   38 1
    40   24   25 1
    41   24   39 1
    42   24   40 1
    43   25   41 1
    44   25   42 1
@<TRIPOS>MOLECULE
ZINC35600123
   38    39     0     0     0
SMALL
USER_CHARGES

@<TRIPOS>ATOM
      1 C1         -0.0167    1.3781    0.0096 C.ar      1 <0>        -0.1138
      2 C2          1.1709    2.0855    0.0021 C.ar      1 <0>        -0.1160
      3 C3          2.3773    1.4107   -0.0130 C.ar      1 <0>        -0.1060
      4 C4          2.3960    0.0285   -0.0201 C.ar      1 <0>        -0.1215
      5 C5          1.2084   -0.6789   -0.0117 C.ar      1 <0>        -0.1097
      6 C6          0.0021   -0.0041    0.0020 C.ar      1 <0>        -0.1153
      7 C7          3.7112   -0.7071   -0.0376 C.3       1 <0>         0.1406
      8 H1          4.4960   -0.0399   -0.3940 H         1 <0>         0.1137
      9 C8          4.0489   -1.1818    1.3772 C.3       1 <0>         0.0976
     10 N1          5.3810   -1.7914    1.3828 N.pl3     1 <0>        -0.7378
     11 C9          5.9116   -2.3034    2.5732 C.ar      1 <0>         0.2072
     12 C10         5.1756   -2.2395    3.7466 C.ar      1 <0>        -0.1812
     13 C11         5.7013   -2.7461    4.9208 C.ar      1 <0>        -0.0217
     14 C12         6.9604   -3.3171    4.9295 C.ar      1 <0>        -0.6832
     15 C13         7.7012   -3.3850    3.7639 C.ar      1 <0>        -0.0597
     16 C14         7.1796   -2.8842    2.5808 C.ar      1 <0>         0.1334
     17 N2          7.9258   -2.9566    1.3982 N.pl3     1 <0>        -0.8822
     18 S1          7.6232   -3.9598    6.4302 S.o2      1 <0>         2.7046
     19 O1          9.0369   -3.9487    6.2875 O.2       1 <0>        -0.9690
     20 O2          6.9591   -3.2844    7.4895 O.2       1 <0>        -0.9662
     21 N3          7.1695   -5.5497    6.5246 N.pl3     1 <0>        -1.2502
     22 O3          3.6140   -1.8361   -0.9083 O.3       1 <0>        -0.5500
     23 H2         -0.9591    1.9053    0.0259 H         1 <0>         0.1253
     24 H3          1.1563    3.1654    0.0076 H         1 <0>         0.1262
     25 H4          3.3051    1.9634   -0.0196 H         1 <0>         0.1245
     26 H5          1.2231   -1.7588   -0.0176 H         1 <0>         0.1205
     27 H6         -0.9258   -0.5567    0.0082 H         1 <0>         0.1258
     28 H7          4.0357   -0.3312    2.0587 H         1 <0>         0.0757
     29 H8          3.3115   -1.9170    1.6995 H         1 <0>         0.0689
     30 H9          5.8954   -1.8404    0.5619 H         1 <0>         0.4011
     31 H10         4.1919   -1.7938    3.7434 H         1 <0>         0.1305
     32 H11         5.1269   -2.6953    5.8339 H         1 <0>         0.1390
     33 H12         8.6846   -3.8314    3.7743 H         1 <0>         0.1394
     34 H13         7.5611   -2.6025    0.5721 H         1 <0>         0.3929
     35 H14         8.8076   -3.3609    1.4052 H         1 <0>         0.4031
     36 H15         7.7352   -6.1889    6.9854 H         1 <0>         0.4197
     37 H16         6.3381   -5.8417    6.1191 H         1 <0>         0.4164
     38 H17         2.9338   -2.4736   -0.6512 H         1 <0>         0.3776
@<TRIPOS>BOND
     1    1    6 ar
     2    1    2 ar
     3    1   23 1
     4    2    3 ar
     5    2   24 1
     6    3    4 ar
     7    3   25 1
     8    4    5 ar
     9    4    7 1
    10    5    6 ar
    11    5   26 1
    12    6   27 1
    13    7    8 1
    14    7    9 1
    15    7   22 1
    16    9   10 1
    17    9   28 1
    18    9   29 1
    19   10   11 1
    20   10   30 1
    21   11   16 ar
    22   11   12 ar
    23   12   13 ar
    24   12   31 1
    25   13   14 ar
    26   13   32 1
    27   14   15 ar
    28   14   18 1
    29   15   16 ar
    30   15   33 1
    31   16   17 1
    32   17   34 1
    33   17   35 1
    34   18   19 2
    35   18   20 2
    36   18   21 1
    37   21   36 1
    38   21   37 1
    39   22   38 1
@<TRIPOS>MOLECULE
ZINC41094134
   36    37     0     0     0
SMALL
USER_CHARGES

@<TRIPOS>ATOM
      1 C1         -0.0229    1.3806   -0.1269 C.ar      1 <0>        -0.0880
      2 C2          1.1617    2.0957   -0.1485 C.ar      1 <0>        -0.1274
      3 C3          2.3712    1.4326   -0.1482 C.ar      1 <0>        -0.0826
      4 C4          2.3985    0.0370   -0.1262 C.ar      1 <0>        -0.1377
      5 C5          1.2003   -0.6780   -0.1045 C.ar      1 <0>        -0.0292
      6 C6         -0.0028   -0.0024   -0.1050 C.ar      1 <0>        -0.1092
      7 C7          1.2203   -2.1847   -0.0811 C.3       1 <0>         0.1140
      8 O1         -0.1205   -2.6786   -0.0616 O.3       1 <0>        -0.3539
      9 C8         -0.2794   -4.0172   -0.0393 C.2       1 <0>         0.5280
     10 O2          0.6944   -4.7449   -0.0364 O.2       1 <0>        -0.5272
     11 C9         -1.6299   -4.5966   -0.0184 C.ar      1 <0>        -0.2772
     12 C10        -2.7497   -3.7653    0.1029 C.ar      1 <0>         0.0325
     13 C11        -4.0029   -4.3035    0.1223 C.ar      1 <0>        -0.2629
     14 C12        -4.1803   -5.6832    0.0223 C.ar      1 <0>         0.2982
     15 C13        -3.0815   -6.5233   -0.0982 C.ar      1 <0>        -0.3030
     16 C14        -1.8029   -5.9882   -0.1259 C.ar      1 <0>         0.3319
     17 N1         -0.6995   -6.8216   -0.2529 N.pl3     1 <0>        -0.8534
     18 N2         -5.4628   -6.2197    0.0437 N.pl3     1 <0>        -0.8636
     19 C15         3.6913   -0.6803   -0.1263 C.2       1 <0>         0.5588
     20 O3          3.7120   -1.8955   -0.1071 O.2       1 <0>        -0.5323
     21 N3          4.8468    0.0131   -0.1477 N.am      1 <0>        -0.8493
     22 H1         -0.9672    1.9047   -0.1227 H         1 <0>         0.1321
     23 H2          1.1391    3.1753   -0.1659 H         1 <0>         0.1319
     24 H3          3.2950    1.9918   -0.1655 H         1 <0>         0.1296
     25 H4         -0.9308   -0.5546   -0.0882 H         1 <0>         0.1415
     26 H5          1.7310   -2.5551   -0.9699 H         1 <0>         0.0941
     27 H6          1.7466   -2.5273    0.8098 H         1 <0>         0.0943
     28 H7         -2.6210   -2.6959    0.1816 H         1 <0>         0.1337
     29 H8         -4.8631   -3.6573    0.2161 H         1 <0>         0.1248
     30 H9         -3.2228   -7.5913   -0.1747 H         1 <0>         0.1266
     31 H10         0.1959   -6.4542   -0.1877 H         1 <0>         0.4173
     32 H11        -0.8240   -7.7712   -0.4069 H         1 <0>         0.3953
     33 H12        -6.2319   -5.6347    0.1281 H         1 <0>         0.4025
     34 H13        -5.5885   -7.1790   -0.0257 H         1 <0>         0.4012
     35 H14         4.8302    0.9829   -0.1631 H         1 <0>         0.4011
     36 H15         5.6949   -0.4575   -0.1478 H         1 <0>         0.4074
@<TRIPOS>BOND
     1    1    6 ar
     2    1    2 ar
     3    1   22 1
     4    2    3 ar
     5    2   23 1
     6    3    4 ar
     7    3   24 1
     8    4    5 ar
     9    4   19 1
    10    5    6 ar
    11    5    7 1
    12    6   25 1
    13    7    8 1
    14    7   26 1
    15    7   27 1
    16    8    9 1
    17    9   10 2
    18    9   11 1
    19   11   16 ar
    20   11   12 ar
    21   12   13 ar
    22   12   28 1
    23   13   14 ar
    24   13   29 1
    25   14   15 ar
    26   14   18 1
    27   15   16 ar
    28   15   30 1
    29   16   17 1
    30   17   31 1
    31   17   32 1
    32   18   33 1
    33   18   34 1
    34   19   20 2
    35   19   21 am
    36   21   35 1
    37   21   36 1
@<TRIPOS>MOLECULE
ZINC03219984
   42    43     0     0     0
SMALL
USER_CHARGES

@<TRIPOS>ATOM
      1 C1          0.9677   -0.1884   -1.0941 C.ar      1 <0>        -0.0899
      2 C2          2.1366    0.5473   -1.1051 C.ar      1 <0>        -0.1313
      3 C3          2.2915    1.6157   -0.2380 C.ar      1 <0>         0.0879
      4 C4          1.2754    1.9488    0.6417 C.ar      1 <0>        -0.1316
      5 C5          0.1051    1.2154    0.6562 C.ar      1 <0>        -0.1130
      6 C6         -0.0524    0.1440   -0.2128 C.ar      1 <0>         0.1463
      7 N1         -1.2387   -0.6005   -0.2004 N.am      1 <0>        -0.6810
      8 C7         -1.2089   -1.9203   -0.4717 C.2       1 <0>         0.7170
      9 O1         -0.1437   -2.4836   -0.6342 O.2       1 <0>        -0.5389
     10 N2         -2.3598   -2.6157   -0.5629 N.am      1 <0>        -0.5190
     11 N3         -3.5871   -1.9665   -0.3757 N.am      1 <0>        -0.4950
     12 C8         -4.7380   -2.6619   -0.4669 C.2       1 <0>         0.5244
     13 O2         -4.7112   -3.8502   -0.7112 O.2       1 <0>        -0.5002
     14 C9         -6.0473   -1.9695   -0.2672 C.2       1 <0>         0.5244
     15 O3         -6.0741   -0.7811   -0.0229 O.2       1 <0>        -0.5003
     16 N4         -7.1982   -2.6648   -0.3584 N.am      1 <0>        -0.4949
     17 N5         -8.4256   -2.0157   -0.1712 N.am      1 <0>        -0.5190
     18 C10        -9.5765   -2.7111   -0.2624 C.2       1 <0>         0.7170
     19 O4        -10.6417   -2.1477   -0.0999 O.2       1 <0>        -0.5390
     20 N6         -9.5467   -4.0309   -0.5338 N.am      1 <0>        -0.6810
     21 C11       -10.7425   -4.7314   -0.7363 C.ar      1 <0>         0.1462
     22 C12       -10.8467   -6.0579   -0.3400 C.ar      1 <0>        -0.1128
     23 C13       -12.0268   -6.7470   -0.5406 C.ar      1 <0>        -0.1317
     24 C14       -13.1055   -6.1156   -1.1366 C.ar      1 <0>         0.0880
     25 C15       -13.0036   -4.7927   -1.5326 C.ar      1 <0>        -0.1314
     26 C16       -11.8271   -4.0985   -1.3285 C.ar      1 <0>        -0.0899
     27 F1        -14.2589   -6.7915   -1.3324 F         1 <0>        -0.1372
     28 F2          3.4358    2.3338   -0.2499 F         1 <0>        -0.1372
     29 H1          0.8455   -1.0189   -1.7736 H         1 <0>         0.1471
     30 H2          2.9305    0.2888   -1.7902 H         1 <0>         0.1420
     31 H3          1.3981    2.7825    1.3173 H         1 <0>         0.1427
     32 H4         -0.6869    1.4751    1.3429 H         1 <0>         0.1384
     33 H5         -2.0817   -0.1661    0.0035 H         1 <0>         0.4054
     34 H6         -2.3383   -3.5656   -0.7582 H         1 <0>         0.4511
     35 H7         -3.6086   -1.0166   -0.1804 H         1 <0>         0.4348
     36 H8         -7.1768   -3.6147   -0.5537 H         1 <0>         0.4348
     37 H9         -8.4470   -1.0658    0.0241 H         1 <0>         0.4511
     38 H10        -8.6971   -4.4957   -0.5888 H         1 <0>         0.4054
     39 H11       -10.0055   -6.5508    0.1246 H         1 <0>         0.1384
     40 H12       -12.1082   -7.7790   -0.2328 H         1 <0>         0.1427
     41 H13       -13.8460   -4.3021   -1.9976 H         1 <0>         0.1420
     42 H14       -11.7495   -3.0653   -1.6334 H         1 <0>         0.1472
@<TRIPOS>BOND
     1    1    6 ar
     2    1    2 ar
     3    1   29 1
     4    2    3 ar
     5    2   30 1
     6    3    4 ar
     7    3   28 1
     8    4    5 ar
     9    4   31 1
    10    5    6 ar
    11    5   32 1
    12    6    7 1
    13    7    8 am
    14    7   33 1
    15    8    9 2
    16    8   10 am
    17   10   11 1
    18   10   34 1
    19   11   12 am
    20   11   35 1
    21   12   13 2
    22   12   14 1
    23   14   15 2
    24   14   16 am
    25   16   17 1
    26   16   36 1
    27   17   18 am
    28   17   37 1
    29   18   19 2
    30   18   20 am
    31   20   21 1
    32   20   38 1
    33   21   26 ar
    34   21   22 ar
    35   22   23 ar
    36   22   39 1
    37   23   24 ar
    38   23   40 1
    39   24   25 ar
    40   24   27 1
    41   25   26 ar
    42   25   41 1
    43   26   42 1
@<TRIPOS>MOLECULE
ZINC66276995
   50    50     0     0     0
SMALL
USER_CHARGES

@<TRIPOS>ATOM
      1 C1         -0.0187    1.5258    0.0104 C.3       1 <0>        -0.1501
      2 C2          0.0021   -0.0041    0.0020 C.3       1 <0>        -0.0989
      3 H1         -1.0205   -0.3814    0.0098 H         1 <0>         0.0745
      4 C3          0.7182   -0.4975   -1.2568 C.3       1 <0>        -0.1101
      5 C4          0.7390   -2.0273   -1.2652 C.3       1 <0>        -0.1240
      6 C5          1.4790   -2.5342   -0.0257 C.3       1 <0>        -0.1150
      7 C6          0.7628   -2.0407    1.2331 C.3       1 <0>        -0.1297
      8 C7          0.7421   -0.5109    1.2415 C.3       1 <0>         0.1489
      9 H2          1.7647   -0.1336    1.2338 H         1 <0>         0.1196
     10 N1          0.0564   -0.0384    2.4469 N.pl3     1 <0>        -0.6787
     11 C8          0.7380    0.0932    3.6021 C.2       1 <0>         0.5626
     12 S1          2.4051   -0.2917    3.6610 S.2       1 <0>        -0.5919
     13 N2          0.1071    0.5278    4.7110 N.pl3     1 <0>        -0.4692
     14 N3         -1.2572    0.8428    4.6628 N.am      1 <0>        -0.5522
     15 C9         -1.8880    1.2775    5.7716 C.2       1 <0>         0.5037
     16 O1         -1.2747    1.3959    6.8112 O.2       1 <0>        -0.4766
     17 C10        -3.3555    1.6163    5.7198 C.3       1 <0>         0.1763
     18 H3         -3.5769    2.1304    4.7845 H         1 <0>         0.1192
     19 C11        -4.1792    0.3296    5.8018 C.3       1 <0>        -0.1228
     20 C12        -5.6622    0.6612    5.6241 C.3       1 <0>        -0.0811
     21 S2         -6.6389   -0.8644    5.7214 S.3       1 <0>        -0.2556
     22 C13        -8.3497   -0.3054    5.4948 C.3       1 <0>        -0.1216
     23 N4         -3.6959    2.4868    6.8479 N.am      1 <0>        -0.7348
     24 C14        -3.5051    2.0580    8.1114 C.2       1 <0>         0.7101
     25 O2         -3.0506    0.9488    8.3149 O.2       1 <0>        -0.5605
     26 N5         -3.8182    2.8588    9.1492 N.am      1 <0>        -0.8655
     27 H4          1.0039    1.9031    0.0027 H         1 <0>         0.0620
     28 H5         -0.5459    1.8868   -0.8726 H         1 <0>         0.0614
     29 H6         -0.5289    1.8773    0.9072 H         1 <0>         0.0481
     30 H7          0.1910   -0.1364   -2.1398 H         1 <0>         0.0696
     31 H8          1.7408   -0.1202   -1.2645 H         1 <0>         0.0697
     32 H9         -0.2836   -2.4046   -1.2575 H         1 <0>         0.0619
     33 H10         1.2492   -2.3788   -2.1620 H         1 <0>         0.0667
     34 H11         1.4937   -3.6240   -0.0317 H         1 <0>         0.0677
     35 H12         2.5015   -2.1569   -0.0334 H         1 <0>         0.0699
     36 H13        -0.2598   -2.4180    1.2409 H         1 <0>         0.0599
     37 H14         1.2900   -2.4018    2.1162 H         1 <0>         0.0824
     38 H15        -0.8882    0.1796    2.4135 H         1 <0>         0.3889
     39 H16         0.5977    0.6226    5.5424 H         1 <0>         0.4586
     40 H17        -1.7477    0.7481    3.8313 H         1 <0>         0.4168
     41 H18        -3.8631   -0.3550    5.0147 H         1 <0>         0.0855
     42 H19        -4.0256   -0.1388    6.7740 H         1 <0>         0.1123
     43 H20        -5.9783    1.3457    6.4113 H         1 <0>         0.0839
     44 H21        -5.8159    1.1296    4.6520 H         1 <0>         0.0823
     45 H22        -8.4468    0.1833    4.5253 H         1 <0>         0.0769
     46 H23        -9.0209   -1.1632    5.5381 H         1 <0>         0.1042
     47 H24        -8.6093    0.3994    6.2846 H         1 <0>         0.0766
     48 H25        -4.0585    3.3717    6.6856 H         1 <0>         0.4047
     49 H26        -4.1809    3.7437    8.9869 H         1 <0>         0.3954
     50 H27        -3.6810    2.5503   10.0585 H         1 <0>         0.4178
@<TRIPOS>BOND
     1    1    2 1
     2    1   27 1
     3    1   28 1
     4    1   29 1
     5    2    3 1
     6    2    8 1
     7    2    4 1
     8    4    5 1
     9    4   30 1
    10    4   31 1
    11    5    6 1
    12    5   32 1
    13    5   33 1
    14    6    7 1
    15    6   34 1
    16    6   35 1
    17    7    8 1
    18    7   36 1
    19    7   37 1
    20    8    9 1
    21    8   10 1
    22   10   11 1
    23   10   38 1
    24   11   12 2
    25   11   13 1
    26   13   14 1
    27   13   39 1
    28   14   15 am
    29   14   40 1
    30   15   16 2
    31   15   17 1
    32   17   18 1
    33   17   19 1
    34   17   23 1
    35   19   20 1
    36   19   41 1
    37   19   42 1
    38   20   21 1
    39   20   43 1
    40   20   44 1
    41   21   22 1
    42   22   45 1
    43   22   46 1
    44   22   47 1
    45   23   24 am
    46   23   48 1
    47   24   25 2
    48   24   26 am
    49   26   49 1
    50   26   50 1
@<TRIPOS>MOLECULE
ZINC31169862
   47    48     0     0     0
SMALL
USER_CHARGES
(6S)-1,7-bis(3,4-dihydroxyphenyl)-6-hydroxy-heptan-3-one
@<TRIPOS>ATOM
      1 C1         -0.3588    2.7788    1.8172 C.ar      1 <0>        -0.1142
      2 C2         -1.0069    3.2318    2.9517 C.ar      1 <0>        -0.1266
      3 C3         -2.0109    2.4700    3.5265 C.ar      1 <0>         0.1218
      4 C4         -2.3689    1.2517    2.9564 C.ar      1 <0>         0.0657
      5 C5         -1.7196    0.8064    1.8167 C.ar      1 <0>        -0.1711
      6 C6         -0.7181    1.5718    1.2479 C.ar      1 <0>        -0.0873
      7 C7         -0.0127    1.0858    0.0080 C.3       1 <0>        -0.0691
      8 C8         -0.7527    1.5927   -1.2315 C.3       1 <0>        -0.1681
      9 C9         -0.0473    1.1066   -2.4714 C.2       1 <0>         0.3553
     10 O1          0.9449    0.4252   -2.3737 O.2       1 <0>        -0.4530
     11 C10        -0.5801    1.4710   -3.8332 C.3       1 <0>        -0.1701
     12 C11         0.3136    0.8558   -4.9119 C.3       1 <0>        -0.1040
     13 C12        -0.2273    1.2257   -6.2944 C.3       1 <0>         0.1221
     14 H1         -0.3873    2.3104   -6.3829 H         1 <0>         0.0541
     15 C13         0.7336    0.7169   -7.3709 C.3       1 <0>        -0.1109
     16 C14         0.2658    1.1865   -8.7243 C.ar      1 <0>        -0.0908
     17 C15         0.7099    2.3957   -9.2262 C.ar      1 <0>        -0.1145
     18 C16         0.2837    2.8309  -10.4673 C.ar      1 <0>        -0.1254
     19 C17        -0.5901    2.0543  -11.2112 C.ar      1 <0>         0.1225
     20 C18        -1.0367    0.8370  -10.7062 C.ar      1 <0>         0.0674
     21 C19        -0.6019    0.4045   -9.4637 C.ar      1 <0>        -0.1757
     22 O2         -1.8943    0.0713  -11.4326 O.3       1 <0>        -0.5200
     23 O3         -1.0099    2.4807  -12.4324 O.3       1 <0>        -0.5088
     24 O4         -1.5110    0.6259   -6.4798 O.3       1 <0>        -0.5961
     25 O5         -3.3543    0.5005    3.5167 O.3       1 <0>        -0.5204
     26 O6         -2.6458    2.9117    4.6451 O.3       1 <0>        -0.5091
     27 H2          0.4269    3.3716    1.3726 H         1 <0>         0.1289
     28 H3         -0.7272    4.1775    3.3921 H         1 <0>         0.1346
     29 H4         -1.9952   -0.1386    1.3725 H         1 <0>         0.1269
     30 H5          1.0193    1.4665    0.0002 H         1 <0>         0.0794
     31 H6          0.0022   -0.0141    0.0019 H         1 <0>         0.0765
     32 H7         -1.7847    1.2120   -1.2236 H         1 <0>         0.0993
     33 H8         -0.7676    2.6926   -1.2254 H         1 <0>         0.1013
     34 H9         -1.6044    1.0848   -3.9415 H         1 <0>         0.1066
     35 H10        -0.5873    2.5655   -3.9433 H         1 <0>         0.0972
     36 H11         1.3379    1.2420   -4.8036 H         1 <0>         0.0828
     37 H12         0.3208   -0.2387   -4.8018 H         1 <0>         0.0770
     38 H13         1.7431    1.1080   -7.1758 H         1 <0>         0.0827
     39 H14         0.7564   -0.3827   -7.3520 H         1 <0>         0.0810
     40 H15         1.3909    3.0019   -8.6474 H         1 <0>         0.1287
     41 H16         0.6321    3.7759  -10.8571 H         1 <0>         0.1348
     42 H17        -0.9440   -0.5417   -9.0711 H         1 <0>         0.1309
     43 H18        -2.2466   -0.8908  -11.0322 H         1 <0>         0.4407
     44 H19        -1.7036    1.8633  -13.0220 H         1 <0>         0.4387
     45 H20        -2.0597    0.7807   -7.4205 H         1 <0>         0.4007
     46 H21        -3.6362   -0.4621    3.0651 H         1 <0>         0.4396
     47 H22        -3.4429    2.3058    5.1006 H         1 <0>         0.4379
@<TRIPOS>BOND
     1    1    6 ar
     2    1    2 ar
     3    1   27 1
     4    2    3 ar
     5    2   28 1
     6    3    4 ar
     7    3   26 1
     8    4    5 ar
     9    4   25 1
    10    5    6 ar
    11    5   29 1
    12    6    7 1
    13    7    8 1
    14    7   30 1
    15    7   31 1
    16    8    9 1
    17    8   32 1
    18    8   33 1
    19    9   10 2
    20    9   11 1
    21   11   12 1
    22   11   34 1
    23   11   35 1
    24   12   13 1
    25   12   36 1
    26   12   37 1
    27   13   14 1
    28   13   15 1
    29   13   24 1
    30   15   16 1
    31   15   38 1
    32   15   39 1
    33   16   21 ar
    34   16   17 ar
    35   17   18 ar
    36   17   40 1
    37   18   19 ar
    38   18   41 1
    39   19   20 ar
    40   19   23 1
    41   20   21 ar
    42   20   22 1
    43   21   42 1
    44   22   43 1
    45   23   44 1
    46   24   45 1
    47   25   46 1
    48   26   47 1
@<TRIPOS>MOLECULE
ZINC42599172
   32    33     0     0     0
SMALL
USER_CHARGES

@<TRIPOS>ATOM
      1 C1          0.0736    1.2826    0.0057 C.2       1 <0>        -0.1523
      2 C2          1.2635    1.9317   -0.0039 C.2       1 <0>        -0.1704
      3 S1          2.4239    0.5752   -0.0289 S.3       1 <0>         0.0307
      4 C3          1.2446   -0.7651   -0.0248 C.2       1 <0>        -0.1687
      5 C4          0.0639   -0.0996   -0.0050 C.2       1 <0>        -0.1171
      6 C5         -1.2398   -0.8553    0.0057 C.3       1 <0>        -0.0764
      7 C6         -1.6994   -1.0998   -1.4330 C.3       1 <0>         0.1349
      8 N1         -2.9669   -1.8345   -1.4226 N.pl3     1 <0>        -0.7100
      9 C7         -3.5814   -2.1724   -2.6173 C.ar      1 <0>         0.4143
     10 C8         -4.7375   -2.9706   -2.6051 C.ar      1 <0>        -0.2308
     11 C9         -5.3430   -3.3007   -3.8228 C.ar      1 <0>        -0.0758
     12 C10        -4.7704   -2.8216   -4.9945 C.ar      1 <0>         0.0947
     13 C11        -3.6259   -2.0375   -4.9222 C.ar      1 <0>         0.1218
     14 N2         -3.0781   -1.7365   -3.7609 N.ar      1 <0>        -0.5099
     15 N3         -5.3413   -3.1266   -6.2367 N.pl3     1 <0>        -0.8791
     16 C12        -5.3027   -3.4525   -1.3315 C.2       1 <0>         0.5814
     17 O1         -4.8333   -3.0732   -0.2758 O.2       1 <0>        -0.5497
     18 N4         -6.3397   -4.3134   -1.3374 N.am      1 <0>        -0.8473
     19 H1         -0.8530    1.8370    0.0259 H         1 <0>         0.1341
     20 H2          1.4589    2.9938    0.0017 H         1 <0>         0.1858
     21 H3          1.4251   -1.8299   -0.0359 H         1 <0>         0.1850
     22 H4         -1.1014   -1.8115    0.5103 H         1 <0>         0.0780
     23 H5         -1.9938   -0.2716    0.5338 H         1 <0>         0.0778
     24 H6         -1.8379   -0.1436   -1.9376 H         1 <0>         0.0653
     25 H7         -0.9455   -1.6835   -1.9611 H         1 <0>         0.0627
     26 H8         -3.3758   -2.0843   -0.5792 H         1 <0>         0.4237
     27 H9         -6.2325   -3.9125   -3.8511 H         1 <0>         0.1334
     28 H10        -3.1795   -1.6647   -5.8322 H         1 <0>         0.1579
     29 H11        -6.1403   -3.6748   -6.2818 H         1 <0>         0.3976
     30 H12        -4.9377   -2.7897   -7.0518 H         1 <0>         0.3999
     31 H13        -6.7141   -4.6159   -2.1795 H         1 <0>         0.4016
     32 H14        -6.7115   -4.6304   -0.4995 H         1 <0>         0.4067
@<TRIPOS>BOND
     1    1    5 1
     2    1    2 2
     3    1   19 1
     4    2    3 1
     5    2   20 1
     6    3    4 1
     7    4    5 2
     8    4   21 1
     9    5    6 1
    10    6    7 1
    11    6   22 1
    12    6   23 1
    13    7    8 1
    14    7   24 1
    15    7   25 1
    16    8    9 1
    17    8   26 1
    18    9   14 ar
    19    9   10 ar
    20   10   11 ar
    21   10   16 1
    22   11   12 ar
    23   11   27 1
    24   12   13 ar
    25   12   15 1
    26   13   14 ar
    27   13   28 1
    28   15   29 1
    29   15   30 1
    30   16   17 2
    31   16   18 am
    32   18   31 1
    33   18   32 1
@<TRIPOS>MOLECULE
ZINC49152921
   35    36     0     0     0
SMALL
USER_CHARGES

@<TRIPOS>ATOM
      1 C1          0.0056    1.5910   -0.0366 C.3       1 <0>        -0.1621
      2 C2          0.0136    0.0612   -0.0145 C.3       1 <0>         0.1521
      3 H1         -1.0120   -0.3073    0.0021 H         1 <0>         0.0902
      4 C3          0.7513   -0.4269    1.2339 C.3       1 <0>        -0.0735
      5 C4          0.6535   -1.9283    1.3202 C.2       1 <0>        -0.1206
      6 C5         -0.3986   -2.5255    1.9888 C.2       1 <0>        -0.1493
      7 C6         -0.4567   -3.8784    2.0479 C.2       1 <0>        -0.1753
      8 S1          1.0061   -4.3509    1.1401 S.3       1 <0>         0.0218
      9 C7          1.5931   -2.7133    0.7385 C.2       1 <0>        -0.1592
     10 N1          0.6936   -0.4408   -1.2111 N.pl3     1 <0>        -0.6979
     11 C8         -0.0099   -0.5939   -2.3947 C.ar      1 <0>         0.4194
     12 C9          0.6693   -0.9691   -3.5657 C.ar      1 <0>        -0.2336
     13 C10        -0.0598   -1.1184   -4.7509 C.ar      1 <0>        -0.0758
     14 C11        -1.4293   -0.8876   -4.7153 C.ar      1 <0>         0.0928
     15 C12        -2.0270   -0.5194   -3.5165 C.ar      1 <0>         0.1222
     16 N2         -1.3174   -0.3909   -2.4123 N.ar      1 <0>        -0.5090
     17 N3         -2.1999   -1.0243   -5.8770 N.pl3     1 <0>        -0.8797
     18 C13         2.1252   -1.2011   -3.5466 C.2       1 <0>         0.5825
     19 O1          2.7315   -1.1735   -2.4929 O.2       1 <0>        -0.5512
     20 N4          2.7841   -1.4438   -4.6970 N.am      1 <0>        -0.8479
     21 H2          1.0312    1.9596   -0.0532 H         1 <0>         0.0545
     22 H3         -0.5200    1.9388   -0.9259 H         1 <0>         0.0595
     23 H4         -0.5004    1.9646    0.8537 H         1 <0>         0.0636
     24 H5          1.7994   -0.1339    1.1744 H         1 <0>         0.0762
     25 H6          0.2993    0.0181    2.1203 H         1 <0>         0.0867
     26 H7         -1.1627   -1.9231    2.4575 H         1 <0>         0.1326
     27 H8         -1.1959   -4.5074    2.5216 H         1 <0>         0.1836
     28 H9          2.4698   -2.4234    0.1784 H         1 <0>         0.1832
     29 H10         1.6364   -0.6661   -1.1746 H         1 <0>         0.4214
     30 H11         0.4298   -1.4054   -5.6698 H         1 <0>         0.1320
     31 H12        -3.0915   -0.3393   -3.4875 H         1 <0>         0.1566
     32 H13        -1.7776   -1.2813   -6.7116 H         1 <0>         0.3972
     33 H14        -3.1557   -0.8620   -5.8468 H         1 <0>         0.3994
     34 H15         2.3005   -1.4658   -5.5376 H         1 <0>         0.4014
     35 H16         3.7419   -1.5964   -4.6844 H         1 <0>         0.4062
@<TRIPOS>BOND
     1    1    2 1
     2    1   21 1
     3    1   22 1
     4    1   23 1
     5    2    3 1
     6    2    4 1
     7    2   10 1
     8    4    5 1
     9    4   24 1
    10    4   25 1
    11    5    9 2
    12    5    6 1
    13    6    7 2
    14    6   26 1
    15    7    8 1
    16    7   27 1
    17    8    9 1
    18    9   28 1
    19   10   11 1
    20   10   29 1
    21   11   16 ar
    22   11   12 ar
    23   12   13 ar
    24   12   18 1
    25   13   14 ar
    26   13   30 1
    27   14   15 ar
    28   14   17 1
    29   15   16 ar
    30   15   31 1
    31   17   32 1
    32   17   33 1
    33   18   19 2
    34   18   20 am
    35   20   34 1
    36   20   35 1
@<TRIPOS>MOLECULE
ZINC00171550
   36    37     0     0     0
SMALL
USER_CHARGES

@<TRIPOS>ATOM
      1 C1          2.5726    0.8033    3.4290 C.3       1 <0>        -0.1179
      2 C2          2.5731   -0.7036    3.4477 C.ar      1 <0>        -0.0434
      3 C3          3.5520   -1.3854    4.1478 C.ar      1 <0>        -0.1483
      4 C4          3.5562   -2.7679    4.1676 C.ar      1 <0>        -0.0686
      5 C5          2.5821   -3.4728    3.4879 C.ar      1 <0>        -0.1771
      6 C6          1.5974   -2.7913    2.7842 C.ar      1 <0>         0.1845
      7 C7          1.5931   -1.4020    2.7707 C.ar      1 <0>        -0.1627
      8 N1          0.6106   -3.5014    2.0950 N.pl3     1 <0>        -0.6551
      9 C8          0.4962   -4.8542    2.2654 C.2       1 <0>         0.1744
     10 C9          0.5911   -5.8042    1.3089 C.2       1 <0>        -0.1963
     11 C10         0.4156   -7.0755    1.8861 C.2       1 <0>         0.5096
     12 O1          0.4494   -8.1239    1.2686 O.2       1 <0>        -0.4264
     13 O2          0.2059   -6.9776    3.2124 O.3       1 <0>        -0.2786
     14 C11         0.2444   -5.5889    3.5635 C.3       1 <0>         0.1197
     15 H1          1.0533   -5.3976    4.2686 H         1 <0>         0.1500
     16 C12        -1.0959   -5.1600    4.1639 C.3       1 <0>        -0.1392
     17 C13        -1.3462   -5.9298    5.4350 C.2       1 <0>         0.5431
     18 O3         -0.5078   -6.7004    5.8524 O.2       1 <0>        -0.5053
     19 N2         -2.5018   -5.7620    6.1080 N.am      1 <0>        -0.8462
     20 C14        -1.0606   -3.6846    4.4688 C.2       1 <0>         0.5337
     21 O4         -0.5127   -3.2862    5.4748 O.2       1 <0>        -0.5011
     22 N3         -1.6380   -2.8078    3.6236 N.am      1 <0>        -0.8441
     23 Cl1         0.8847   -5.5020   -0.3752 Cl        1 <0>         0.0098
     24 H2          1.9835    1.1769    4.2665 H         1 <0>         0.0743
     25 H3          3.5963    1.1681    3.5134 H         1 <0>         0.0701
     26 H4          2.1377    1.1549    2.4934 H         1 <0>         0.0674
     27 H5          4.3150   -0.8366    4.6798 H         1 <0>         0.1248
     28 H6          4.3221   -3.2972    4.7149 H         1 <0>         0.1285
     29 H7          2.5863   -4.5527    3.5032 H         1 <0>         0.1184
     30 H8          0.8265   -0.8689    2.2280 H         1 <0>         0.1250
     31 H9          0.0067   -3.0353    1.4959 H         1 <0>         0.4218
     32 H10        -1.8952   -5.3649    3.4517 H         1 <0>         0.1289
     33 H11        -3.2033   -5.2050    5.7358 H         1 <0>         0.4007
     34 H12        -2.6320   -6.1982    6.9646 H         1 <0>         0.4122
     35 H13        -2.1417   -3.1302    2.8599 H         1 <0>         0.4018
     36 H14        -1.5499   -1.8544    3.7790 H         1 <0>         0.4115
@<TRIPOS>BOND
     1    1    2 1
     2    1   24 1
     3    1   25 1
     4    1   26 1
     5    2    7 ar
     6    2    3 ar
     7    3    4 ar
     8    3   27 1
     9    4    5 ar
    10    4   28 1
    11    5    6 ar
    12    5   29 1
    13    6    7 ar
    14    6    8 1
    15    7   30 1
    16    8    9 1
    17    8   31 1
    18    9   14 1
    19    9   10 2
    20   10   11 1
    21   10   23 1
    22   11   12 2
    23   11   13 1
    24   13   14 1
    25   14   15 1
    26   14   16 1
    27   16   17 1
    28   16   20 1
    29   16   32 1
    30   17   18 2
    31   17   19 am
    32   19   33 1
    33   19   34 1
    34   20   21 2
    35   20   22 am
    36   22   35 1
    37   22   36 1
@<TRIPOS>MOLECULE
ZINC67190218
   46    45     0     0     0
SMALL
USER_CHARGES

@<TRIPOS>ATOM
      1 C1         -0.0657    1.4260    0.4429 C.3       1 <0>        -0.1558
      2 C2         -0.1857   -0.0895    0.6153 C.3       1 <0>        -0.1162
      3 C3         -1.5471   -0.5558    0.0957 C.3       1 <0>        -0.0956
      4 H1         -1.6758   -0.2241   -0.9346 H         1 <0>         0.0947
      5 C4         -2.6561    0.0396    0.9654 C.3       1 <0>        -0.1546
      6 C5         -1.6189   -2.0830    0.1524 C.3       1 <0>         0.1656
      7 H2         -0.8192   -2.5072   -0.4547 H         1 <0>         0.1169
      8 C6         -2.9516   -2.5434   -0.3795 C.2       1 <0>         0.5073
      9 O1         -3.8389   -2.8479    0.3892 O.2       1 <0>        -0.5295
     10 N1         -3.1575   -2.6168   -1.7094 N.am      1 <0>        -0.5217
     11 N2         -4.3964   -3.0448   -2.2039 N.am      1 <0>        -0.5253
     12 C7         -4.6023   -3.1182   -3.5338 C.2       1 <0>         0.5134
     13 O2         -3.7150   -2.8137   -4.3025 O.2       1 <0>        -0.5371
     14 C8         -5.9350   -3.5786   -4.0657 C.3       1 <0>        -0.1322
     15 C9         -5.9040   -3.5706   -5.5954 C.3       1 <0>        -0.0993
     16 C10        -7.2570   -4.0380   -6.1354 C.3       1 <0>        -0.0982
     17 C11        -8.3379   -3.0271   -5.7472 C.3       1 <0>        -0.1525
     18 C12        -7.1868   -4.1496   -7.6597 C.3       1 <0>        -0.1486
     19 N3         -1.4668   -2.5278    1.5400 N.am      1 <0>        -0.7188
     20 C13        -0.9969   -3.7631    1.8040 C.2       1 <0>         0.7097
     21 O3         -0.7864   -4.5409    0.8936 O.2       1 <0>        -0.5905
     22 N4         -0.7602   -4.1361    3.0773 N.am      1 <0>        -0.8627
     23 H3          0.9042    1.7582    0.8131 H         1 <0>         0.0579
     24 H4         -0.1580    1.6799   -0.6131 H         1 <0>         0.0567
     25 H5         -0.8580    1.9195    1.0058 H         1 <0>         0.0585
     26 H6          0.6065   -0.5831    0.0524 H         1 <0>         0.0688
     27 H7         -0.0934   -0.3435    1.6713 H         1 <0>         0.0667
     28 H8         -3.6270   -0.2711    0.5793 H         1 <0>         0.0602
     29 H9         -2.5429   -0.3133    1.9905 H         1 <0>         0.0577
     30 H10        -2.5886    1.1273    0.9461 H         1 <0>         0.0701
     31 H11        -2.4478   -2.3733   -2.3242 H         1 <0>         0.4316
     32 H12        -5.1061   -3.2883   -1.5891 H         1 <0>         0.4313
     33 H13        -6.1380   -4.5893   -3.7117 H         1 <0>         0.1000
     34 H14        -6.7181   -2.9065   -3.7147 H         1 <0>         0.1016
     35 H15        -5.7010   -2.5599   -5.9494 H         1 <0>         0.0726
     36 H16        -5.1209   -4.2427   -5.9464 H         1 <0>         0.0725
     37 H17        -7.5010   -5.0118   -5.7107 H         1 <0>         0.0715
     38 H18        -8.0939   -2.0533   -6.1719 H         1 <0>         0.0559
     39 H19        -9.3018   -3.3601   -6.1320 H         1 <0>         0.0556
     40 H20        -8.3879   -2.9476   -4.6613 H         1 <0>         0.0553
     41 H21        -6.4168   -4.8698   -7.9362 H         1 <0>         0.0556
     42 H22        -8.1508   -4.4826   -8.0444 H         1 <0>         0.0557
     43 H23        -6.9429   -3.1758   -8.0844 H         1 <0>         0.0557
     44 H24        -1.7044   -1.9333    2.2687 H         1 <0>         0.4036
     45 H25        -0.9281   -3.5155    3.8037 H         1 <0>         0.3982
     46 H26        -0.4220   -5.0251    3.2674 H         1 <0>         0.4176
@<TRIPOS>BOND
     1    1    2 1
     2    1   23 1
     3    1   24 1
     4    1   25 1
     5    2    3 1
     6    2   26 1
     7    2   27 1
     8    3    4 1
     9    3    5 1
    10    3    6 1
    11    5   28 1
    12    5   29 1
    13    5   30 1
    14    6    7 1
    15    6    8 1
    16    6   19 1
    17    8    9 2
    18    8   10 am
    19   10   11 1
    20   10   31 1
    21   11   12 am
    22   11   32 1
    23   12   13 2
    24   12   14 1
    25   14   15 1
    26   14   33 1
    27   14   34 1
    28   15   16 1
    29   15   35 1
    30   15   36 1
    31   16   17 1
    32   16   18 1
    33   16   37 1
    34   17   38 1
    35   17   39 1
    36   17   40 1
    37   18   41 1
    38   18   42 1
    39   18   43 1
    40   19   20 am
    41   19   44 1
    42   20   21 2
    43   20   22 am
    44   22   45 1
    45   22   46 1
@<TRIPOS>MOLECULE
ZINC29351732
   41    42     0     0     0
SMALL
USER_CHARGES
(2R)-2-[(4,6-diamino-1,3,5-triazin-2-yl)methylsulfanyl]-N-(3-methylsulfanylphenyl)propanamide
@<TRIPOS>ATOM
      1 C1         -0.7369   -0.4433    9.2558 C.3       1 <0>        -0.1497
      2 C2          0.3459    0.5890    8.9350 C.3       1 <0>        -0.1016
      3 H1         -0.1790    1.5556    8.9209 H         1 <0>         0.1120
      4 C3          0.8062    0.4082    7.5115 C.2       1 <0>         0.5339
      5 O1          1.7856   -0.2660    7.2718 O.2       1 <0>        -0.4991
      6 N1          0.1297    0.9957    6.5047 N.am      1 <0>        -0.6818
      7 C4          0.4981    0.7502    5.1773 C.ar      1 <0>         0.1693
      8 C5          1.8365    0.5709    4.8488 C.ar      1 <0>        -0.1259
      9 C6          2.2016    0.3285    3.5386 C.ar      1 <0>        -0.0805
     10 C7          1.2379    0.2591    2.5512 C.ar      1 <0>        -0.1481
     11 C8         -0.1021    0.4427    2.8719 C.ar      1 <0>        -0.0656
     12 C9         -0.4720    0.6861    4.1882 C.ar      1 <0>        -0.1259
     13 S1         -1.3304    0.3596    1.6114 S.3       1 <0>        -0.1173
     14 C10        -0.3851    0.0306    0.0985 C.3       1 <0>        -0.1465
     15 S2          1.7514    0.3602   10.0587 S.3       1 <0>        -0.1154
     16 C11         1.0744    0.7560   11.6944 C.3       1 <0>        -0.0470
     17 C12         2.1537    0.6036   12.7351 C.ar      1 <0>         0.4468
     18 N2          2.3283   -0.5593   13.3381 N.ar      1 <0>        -0.6323
     19 C13         3.2836   -0.6990   14.2545 C.ar      1 <0>         0.6352
     20 N3          4.0555    0.3352   14.5698 N.ar      1 <0>        -0.6634
     21 C14         3.8736    1.5041   13.9651 C.ar      1 <0>         0.6351
     22 N4          2.9196    1.6347   13.0461 N.ar      1 <0>        -0.6336
     23 N5          4.6725    2.5815   14.2895 N.pl3     1 <0>        -0.8304
     24 N6          3.4684   -1.9152   14.8798 N.pl3     1 <0>        -0.8302
     25 H2         -1.0729   -0.3114   10.2949 H         1 <0>         0.0748
     26 H3         -0.3270   -1.4561    9.1288 H         1 <0>         0.0779
     27 H4         -1.5892   -0.3045    8.5744 H         1 <0>         0.0710
     28 H5         -0.7121    1.6682    6.7265 H         1 <0>         0.4366
     29 H6          2.5921    0.6208    5.6188 H         1 <0>         0.1419
     30 H7          3.2424    0.1888    3.2864 H         1 <0>         0.1301
     31 H8          1.5262    0.0653    1.5285 H         1 <0>         0.1246
     32 H9         -1.5127    0.8254    4.4410 H         1 <0>         0.1313
     33 H10        -1.0739   -0.0394   -0.7563 H         1 <0>         0.1118
     34 H11         0.1622   -0.9174    0.2070 H         1 <0>         0.0861
     35 H12         0.3296    0.8491   -0.0726 H         1 <0>         0.0861
     36 H13         0.7056    1.7923   11.6976 H         1 <0>         0.1136
     37 H14         0.2448    0.0709   11.9235 H         1 <0>         0.1146
     38 H15         4.5213    3.5490   13.7884 H         1 <0>         0.4414
     39 H16         5.4606    2.4729   15.0492 H         1 <0>         0.4392
     40 H17         4.2580   -2.0300   15.6370 H         1 <0>         0.4392
     41 H18         2.8261   -2.7699   14.6210 H         1 <0>         0.4417
@<TRIPOS>BOND
     1    1    2 1
     2    1   25 1
     3    1   26 1
     4    1   27 1
     5    2    3 1
     6    2    4 1
     7    2   15 1
     8    4    5 2
     9    4    6 am
    10    6    7 1
    11    6   28 1
    12    7   12 ar
    13    7    8 ar
    14    8    9 ar
    15    8   29 1
    16    9   10 ar
    17    9   30 1
    18   10   11 ar
    19   10   31 1
    20   11   12 ar
    21   11   13 1
    22   12   32 1
    23   13   14 1
    24   14   33 1
    25   14   34 1
    26   14   35 1
    27   15   16 1
    28   16   17 1
    29   16   36 1
    30   16   37 1
    31   17   22 ar
    32   17   18 ar
    33   18   19 ar
    34   19   20 ar
    35   19   24 1
    36   20   21 ar
    37   21   22 ar
    38   21   23 1
    39   23   38 1
    40   23   39 1
    41   24   40 1
    42   24   41 1
@<TRIPOS>MOLECULE
ZINC40628990
   37    38     0     0     0
SMALL
USER_CHARGES

@<TRIPOS>ATOM
      1 C1         -0.2504    1.1157    0.0725 C.ar      1 <0>        -0.1437
      2 C2          0.8617    1.9561    0.0526 C.ar      1 <0>        -0.0896
      3 C3          2.1236    1.4484    0.0128 C.ar      1 <0>        -0.1328
      4 C4          2.3143    0.0554   -0.0086 C.ar      1 <0>         0.0260
      5 C5          3.6049   -0.4966   -0.0491 C.ar      1 <0>        -0.2255
      6 C6          3.7668   -1.8527   -0.0690 C.ar      1 <0>         0.2741
      7 C7          2.6457   -2.7122   -0.0497 C.ar      1 <0>        -0.1983
      8 C8          1.3632   -2.1905   -0.0097 C.ar      1 <0>        -0.0139
      9 C9          1.1824   -0.8002    0.0115 C.ar      1 <0>        -0.1139
     10 C10        -0.1064   -0.2371    0.0527 C.ar      1 <0>        -0.0797
     11 C11         2.8422   -4.1741   -0.0728 C.2       1 <0>         0.5714
     12 O1          3.9636   -4.6381    0.0026 O.2       1 <0>        -0.5448
     13 N1          1.7787   -4.9954   -0.1774 N.am      1 <0>        -0.7241
     14 C12         1.9738   -6.4472   -0.2002 C.3       1 <0>         0.1179
     15 C13         0.6165   -7.1423   -0.3245 C.3       1 <0>        -0.1195
     16 C14         0.8202   -8.6585   -0.3484 C.3       1 <0>        -0.1398
     17 C15        -0.5167   -9.3431   -0.4707 C.2       1 <0>         0.5162
     18 O2         -1.5324   -8.6833   -0.5327 O.2       1 <0>        -0.5430
     19 N2         -0.5836  -10.6886   -0.5113 N.am      1 <0>        -0.8572
     20 N3          5.0483   -2.3928   -0.1091 N.pl3     1 <0>        -0.8617
     21 H1         -1.2409    1.5447    0.1086 H         1 <0>         0.1227
     22 H2          0.7196    3.0266    0.0686 H         1 <0>         0.1228
     23 H3          2.9751    2.1125   -0.0025 H         1 <0>         0.1267
     24 H4          4.4691    0.1509   -0.0649 H         1 <0>         0.1295
     25 H5          0.5082   -2.8502    0.0046 H         1 <0>         0.1321
     26 H6         -0.9772   -0.8757    0.0689 H         1 <0>         0.1266
     27 H7          0.8841   -4.6253   -0.2375 H         1 <0>         0.4032
     28 H8          2.5991   -6.7164   -1.0515 H         1 <0>         0.0722
     29 H9          2.4606   -6.7630    0.7225 H         1 <0>         0.0723
     30 H10        -0.0088   -6.8731    0.5268 H         1 <0>         0.0796
     31 H11         0.1297   -6.8265   -1.2472 H         1 <0>         0.0796
     32 H12         1.4455   -8.9277   -1.1996 H         1 <0>         0.0998
     33 H13         1.3070   -8.9742    0.5744 H         1 <0>         0.0998
     34 H14         0.2288  -11.2163   -0.4617 H         1 <0>         0.4028
     35 H15        -1.4441  -11.1293   -0.5900 H         1 <0>         0.4028
     36 H16         5.8176   -1.8098   -0.2045 H         1 <0>         0.3938
     37 H17         5.1724   -3.3525   -0.0417 H         1 <0>         0.4157
@<TRIPOS>BOND
     1    1   10 ar
     2    1    2 ar
     3    1   21 1
     4    2    3 ar
     5    2   22 1
     6    3    4 ar
     7    3   23 1
     8    4    9 ar
     9    4    5 ar
    10    5    6 ar
    11    5   24 1
    12    6    7 ar
    13    6   20 1
    14    7    8 ar
    15    7   11 1
    16    8    9 ar
    17    8   25 1
    18    9   10 ar
    19   10   26 1
    20   11   12 2
    21   11   13 am
    22   13   14 1
    23   13   27 1
    24   14   15 1
    25   14   28 1
    26   14   29 1
    27   15   16 1
    28   15   30 1
    29   15   31 1
    30   16   17 1
    31   16   32 1
    32   16   33 1
    33   17   18 2
    34   17   19 am
    35   19   34 1
    36   19   35 1
    37   20   36 1
    38   20   37 1
@<TRIPOS>MOLECULE
ZINC45094537
   43    43     0     0     0
SMALL
USER_CHARGES

@<TRIPOS>ATOM
      1 C1         -0.0187    1.5258    0.0104 C.3       1 <0>        -0.1480
      2 C2          0.0021   -0.0041    0.0020 C.3       1 <0>        -0.0948
      3 C3          0.7421   -0.5109    1.2415 C.3       1 <0>        -0.1525
      4 C4         -1.4333   -0.5336    0.0129 C.3       1 <0>        -0.1138
      5 C5         -1.4157   -2.0577   -0.1212 C.3       1 <0>         0.0600
      6 O1         -2.7563   -2.5523   -0.1111 O.3       1 <0>        -0.3858
      7 C6         -2.8526   -3.9729   -0.2316 C.3       1 <0>         0.0495
      8 C7         -4.3250   -4.3880   -0.2092 C.3       1 <0>         0.1271
      9 N1         -5.0016   -3.8519   -1.3929 N.pl3     1 <0>        -0.7379
     10 C8         -6.3612   -4.1009   -1.5929 C.ar      1 <0>         0.2450
     11 C9         -7.0735   -4.8514   -0.6677 C.ar      1 <0>        -0.2258
     12 C10        -8.4241   -5.0964   -0.8702 C.ar      1 <0>         0.2440
     13 C11        -9.0593   -4.5900   -1.9981 C.ar      1 <0>        -0.1603
     14 C12        -8.3475   -3.8435   -2.9168 C.ar      1 <0>        -0.5779
     15 C13        -7.0037   -3.5928   -2.7153 C.ar      1 <0>        -0.1484
     16 S1         -9.1566   -3.2035   -4.3452 S.o2      1 <0>         2.7013
     17 O2         -8.1486   -2.9994   -5.3258 O.2       1 <0>        -0.9634
     18 O3        -10.2879   -4.0317   -4.5765 O.2       1 <0>        -0.9618
     19 N2         -9.7401   -1.7056   -3.9475 N.pl3     1 <0>        -1.2477
     20 N3         -9.1445   -5.8515    0.0580 N.pl3     1 <0>        -0.8742
     21 H1          1.0039    1.9031    0.0027 H         1 <0>         0.0571
     22 H2         -0.5459    1.8868   -0.8726 H         1 <0>         0.0561
     23 H3         -0.5289    1.8773    0.9072 H         1 <0>         0.0560
     24 H4          0.5123   -0.3556   -0.8948 H         1 <0>         0.0711
     25 H5          1.7647   -0.1336    1.2338 H         1 <0>         0.0565
     26 H6          0.2319   -0.1594    2.1383 H         1 <0>         0.0565
     27 H7          0.7568   -1.6008    1.2356 H         1 <0>         0.0545
     28 H8         -1.9156   -0.2570    0.9504 H         1 <0>         0.0710
     29 H9         -1.9862   -0.1019   -0.8214 H         1 <0>         0.0710
     30 H10        -0.9334   -2.3344   -1.0587 H         1 <0>         0.0488
     31 H11        -0.8628   -2.4894    0.7131 H         1 <0>         0.0521
     32 H12        -2.4001   -4.2894   -1.1714 H         1 <0>         0.0575
     33 H13        -2.3295   -4.4444    0.6004 H         1 <0>         0.0662
     34 H14        -4.3960   -5.4757   -0.2116 H         1 <0>         0.0759
     35 H15        -4.7997   -3.9949    0.6898 H         1 <0>         0.0701
     36 H16        -4.5052   -3.3240   -2.0378 H         1 <0>         0.4064
     37 H17        -6.5775   -5.2440    0.2076 H         1 <0>         0.1261
     38 H18       -10.1105   -4.7807   -2.1564 H         1 <0>         0.1361
     39 H19        -6.4511   -3.0047   -3.4331 H         1 <0>         0.1362
     40 H20        -9.8206   -1.0198   -4.6288 H         1 <0>         0.4210
     41 H21       -10.0014   -1.5139   -3.0332 H         1 <0>         0.4175
     42 H22        -8.7006   -6.2049    0.8448 H         1 <0>         0.3998
     43 H23       -10.0887   -6.0225   -0.0841 H         1 <0>         0.4023
@<TRIPOS>BOND
     1    1    2 1
     2    1   21 1
     3    1   22 1
     4    1   23 1
     5    2    3 1
     6    2    4 1
     7    2   24 1
     8    3   25 1
     9    3   26 1
    10    3   27 1
    11    4    5 1
    12    4   28 1
    13    4   29 1
    14    5    6 1
    15    5   30 1
    16    5   31 1
    17    6    7 1
    18    7    8 1
    19    7   32 1
    20    7   33 1
    21    8    9 1
    22    8   34 1
    23    8   35 1
    24    9   10 1
    25    9   36 1
    26   10   15 ar
    27   10   11 ar
    28   11   12 ar
    29   11   37 1
    30   12   13 ar
    31   12   20 1
    32   13   14 ar
    33   13   38 1
    34   14   15 ar
    35   14   16 1
    36   15   39 1
    37   16   17 2
    38   16   18 2
    39   16   19 1
    40   19   40 1
    41   19   41 1
    42   20   42 1
    43   20   43 1
@<TRIPOS>MOLECULE
ZINC06756804
   40    42     0     0     0
SMALL
USER_CHARGES

@<TRIPOS>ATOM
      1 C1         -0.0167    1.3787    0.0096 C.ar      1 <0>        -0.0704
      2 C2          1.1687    2.0904    0.0021 C.ar      1 <0>        -0.1597
      3 C3          2.3799    1.4241   -0.0134 C.ar      1 <0>        -0.0869
      4 C4          2.4082    0.0371   -0.0211 C.ar      1 <0>        -0.1824
      5 C5          1.2119   -0.6809   -0.0131 C.ar      1 <0>         0.2433
      6 C6          0.0021   -0.0041    0.0020 C.ar      1 <0>        -0.1822
      7 N1          1.2332   -2.0808   -0.0212 N.pl3     1 <0>        -0.8706
      8 S1          3.9503   -0.8151   -0.0415 S.3       1 <0>        -0.0385
      9 C7          5.1857    0.5131   -0.0472 C.3       1 <0>        -0.1447
     10 C8          6.5681   -0.0867   -0.0646 C.2       1 <0>         0.5304
     11 O1          6.7063   -1.2916   -0.0724 O.2       1 <0>        -0.4769
     12 N2          7.6509    0.7158   -0.0715 N.am      1 <0>        -0.6146
     13 C9          8.9228    0.1639   -0.0875 C.2       1 <0>         0.0314
     14 C10        10.1367    0.8256   -0.0908 C.2       1 <0>        -0.2205
     15 C11        11.3468    0.0054   -0.1083 C.2       1 <0>        -0.0913
     16 C12        11.1116   -1.3190   -0.1205 C.2       1 <0>        -0.2479
     17 S2          9.3425   -1.4598   -0.0999 S.3       1 <0>         0.3275
     18 C13        12.3882   -2.1151   -0.1424 C.3       1 <0>        -0.0315
     19 C14        13.4721   -1.1030   -0.5753 C.3       1 <0>        -0.1159
     20 C15        12.8568    0.2338   -0.1142 C.3       1 <0>        -0.0598
     21 C16        10.2076    2.2900   -0.0778 C.2       1 <0>         0.5839
     22 O2         10.2457    2.8881    0.9815 O.2       1 <0>        -0.5336
     23 N3         10.2306    2.9739   -1.2390 N.am      1 <0>        -0.8479
     24 H1         -0.9601    1.9042    0.0260 H         1 <0>         0.1258
     25 H2          1.1483    3.1702    0.0081 H         1 <0>         0.1232
     26 H3          3.3038    1.9832   -0.0200 H         1 <0>         0.1186
     27 H4         -0.9258   -0.5567    0.0082 H         1 <0>         0.1272
     28 H5          2.0805   -2.5529   -0.0324 H         1 <0>         0.4009
     29 H6          0.4007   -2.5786   -0.0156 H         1 <0>         0.4022
     30 H7          5.0478    1.1338   -0.9325 H         1 <0>         0.1253
     31 H8          5.0661    1.1244    0.8474 H         1 <0>         0.1258
     32 H9          7.5403    1.6795   -0.0652 H         1 <0>         0.4209
     33 H10        12.6089   -2.5068    0.8505 H         1 <0>         0.0853
     34 H11        12.3169   -2.9279   -0.8653 H         1 <0>         0.0802
     35 H12        14.4139   -1.2966   -0.0618 H         1 <0>         0.0847
     36 H13        13.6091   -1.1168   -1.6566 H         1 <0>         0.0773
     37 H14        13.1153    1.0293   -0.8131 H         1 <0>         0.0720
     38 H15        13.2046    0.4834    0.8882 H         1 <0>         0.0824
     39 H16        10.2002    2.4972   -2.0833 H         1 <0>         0.4036
     40 H17        10.2775    3.9427   -1.2304 H         1 <0>         0.4033
@<TRIPOS>BOND
     1    1    6 ar
     2    1    2 ar
     3    1   24 1
     4    2    3 ar
     5    2   25 1
     6    3    4 ar
     7    3   26 1
     8    4    5 ar
     9    4    8 1
    10    5    6 ar
    11    5    7 1
    12    6   27 1
    13    7   28 1
    14    7   29 1
    15    8    9 1
    16    9   10 1
    17    9   30 1
    18    9   31 1
    19   10   11 2
    20   10   12 am
    21   12   13 1
    22   12   32 1
    23   13   17 1
    24   13   14 2
    25   14   15 1
    26   14   21 1
    27   15   20 1
    28   15   16 2
    29   16   17 1
    30   16   18 1
    31   18   19 1
    32   18   33 1
    33   18   34 1
    34   19   20 1
    35   19   35 1
    36   19   36 1
    37   20   37 1
    38   20   38 1
    39   21   22 2
    40   21   23 am
    41   23   39 1
    42   23   40 1
@<TRIPOS>MOLECULE
ZINC66939298
   35    36     0     0     0
SMALL
USER_CHARGES

@<TRIPOS>ATOM
      1 C1         -0.0167    1.3782    0.0096 C.ar      1 <0>        -0.0749
      2 C2          1.1703    2.0860    0.0021 C.ar      1 <0>        -0.1467
      3 C3          2.3786    1.4101   -0.0131 C.ar      1 <0>         0.1121
      4 C4          2.3962    0.0256   -0.0207 C.ar      1 <0>        -0.1456
      5 C5          1.2079   -0.6800   -0.0132 C.ar      1 <0>        -0.0749
      6 C6          0.0021   -0.0041    0.0020 C.ar      1 <0>        -0.1144
      7 C7         -1.2930   -0.7747    0.0103 C.3       1 <0>         0.1777
      8 H1         -2.1023   -0.1287   -0.3300 H         1 <0>         0.1211
      9 C8         -1.5851   -1.2511    1.4098 C.2       1 <0>         0.5005
     10 O1         -1.6889   -2.4379    1.6371 O.2       1 <0>        -0.5174
     11 N1         -1.7311   -0.3583    2.4089 N.am      1 <0>        -0.8500
     12 N2         -1.1801   -1.9289   -0.8849 N.pl3     1 <0>        -0.7096
     13 C9         -2.3221   -2.4814   -1.4543 C.ar      1 <0>         0.2663
     14 C10        -3.5716   -1.9326   -1.1771 C.ar      1 <0>        -0.2021
     15 C11        -4.6974   -2.4700   -1.7328 C.ar      1 <0>        -0.0213
     16 C12        -4.5995   -3.5749   -2.5841 C.ar      1 <0>        -0.1980
     17 C13        -3.3453   -4.1284   -2.8651 C.ar      1 <0>         0.0699
     18 C14        -2.2130   -3.5776   -2.3043 C.ar      1 <0>        -0.1966
     19 Cl1        -3.2154   -5.5002   -3.9210 Cl        1 <0>        -0.0269
     20 C15        -5.8148   -4.1557   -3.1839 C.2       1 <0>         0.5626
     21 O2         -5.7279   -5.1167   -3.9241 O.2       1 <0>        -0.5242
     22 N3         -7.0219   -3.6216   -2.9119 N.am      1 <0>        -0.8549
     23 F1          3.5396    2.1009   -0.0209 F         1 <0>        -0.1334
     24 H2         -0.9592    1.9052    0.0260 H         1 <0>         0.1403
     25 H3          1.1554    3.1659    0.0077 H         1 <0>         0.1437
     26 H4          3.3381   -0.5027   -0.0329 H         1 <0>         0.1423
     27 H5          1.2213   -1.7599   -0.0195 H         1 <0>         0.1343
     28 H6         -1.6481    0.5909    2.2270 H         1 <0>         0.4014
     29 H7         -1.9192   -0.6649    3.3097 H         1 <0>         0.4063
     30 H8         -0.3088   -2.3077   -1.0804 H         1 <0>         0.4096
     31 H9         -3.6507   -1.0792   -0.5200 H         1 <0>         0.1271
     32 H10        -5.6643   -2.0414   -1.5143 H         1 <0>         0.1337
     33 H11        -1.2425   -3.9990   -2.5212 H         1 <0>         0.1398
     34 H12        -7.0912   -2.8551   -2.3215 H         1 <0>         0.3974
     35 H13        -7.8214   -4.0037   -3.3064 H         1 <0>         0.4052
@<TRIPOS>BOND
     1    1    6 ar
     2    1    2 ar
     3    1   24 1
     4    2    3 ar
     5    2   25 1
     6    3    4 ar
     7    3   23 1
     8    4    5 ar
     9    4   26 1
    10    5    6 ar
    11    5   27 1
    12    6    7 1
    13    7    8 1
    14    7    9 1
    15    7   12 1
    16    9   10 2
    17    9   11 am
    18   11   28 1
    19   11   29 1
    20   12   13 1
    21   12   30 1
    22   13   18 ar
    23   13   14 ar
    24   14   15 ar
    25   14   31 1
    26   15   16 ar
    27   15   32 1
    28   16   17 ar
    29   16   20 1
    30   17   18 ar
    31   17   19 1
    32   18   33 1
    33   20   21 2
    34   20   22 am
    35   22   34 1
    36   22   35 1
@<TRIPOS>MOLECULE
ZINC19863973
   39    40     0     0     0
SMALL
USER_CHARGES
2-[[[4-(2-anilino-2-oxo-ethyl)thiazol-2-yl]amino]methylene]propanediamide
@<TRIPOS>ATOM
      1 C1          6.5664    3.5380   -5.2621 C.ar      1 <0>        -0.1369
      2 C2          5.3927    3.8439   -4.5979 C.ar      1 <0>        -0.1028
      3 C3          5.0638    3.1798   -3.4325 C.ar      1 <0>        -0.1234
      4 C4          5.9133    2.2042   -2.9275 C.ar      1 <0>         0.1496
      5 C5          7.0940    1.9033   -3.5939 C.ar      1 <0>        -0.1476
      6 C6          7.4144    2.5670   -4.7619 C.ar      1 <0>        -0.1022
      7 N1          5.5832    1.5299   -1.7468 N.am      1 <0>        -0.6902
      8 C7          4.2950    1.2454   -1.4708 C.2       1 <0>         0.5193
      9 O1          3.4157    1.6394   -2.2074 O.2       1 <0>        -0.5032
     10 C8          3.9472    0.4376   -0.2471 C.3       1 <0>        -0.0689
     11 C9          2.4525    0.2617   -0.1694 C.2       1 <0>         0.1058
     12 C10         1.9032   -0.9748   -0.0811 C.2       1 <0>        -0.2266
     13 S1          0.1656   -0.5626   -0.0216 S.3       1 <0>         0.0837
     14 C11         0.3394    1.1626   -0.1173 C.2       1 <0>         0.3020
     15 N2          1.6489    1.3064   -0.1853 N.2       1 <0>        -0.5207
     16 N3         -0.6471    2.1395   -0.1262 N.pl3     1 <0>        -0.5950
     17 C12        -1.9496    1.7855   -0.0531 C.2       1 <0>         0.2439
     18 C13        -2.9330    2.7464   -0.1663 C.2       1 <0>        -0.3333
     19 C14        -4.3462    2.3502   -0.1979 C.2       1 <0>         0.5953
     20 O2         -4.6553    1.1851   -0.0318 O.2       1 <0>        -0.5610
     21 N4         -5.3013    3.2770   -0.4108 N.am      1 <0>        -0.8717
     22 C15        -2.5662    4.1652   -0.2552 C.2       1 <0>         0.5653
     23 O3         -2.5670    4.8576    0.7454 O.2       1 <0>        -0.5363
     24 N5         -2.2287    4.7006   -1.4451 N.am      1 <0>        -0.8722
     25 H1          6.8210    4.0582   -6.1737 H         1 <0>         0.1225
     26 H2          4.7324    4.6027   -4.9912 H         1 <0>         0.1236
     27 H3          4.1470    3.4192   -2.9142 H         1 <0>         0.1364
     28 H4          7.7588    1.1480   -3.2015 H         1 <0>         0.1248
     29 H5          8.3304    2.3303   -5.2830 H         1 <0>         0.1255
     30 H6          6.3750    1.2320   -1.0438 H         1 <0>         0.4341
     31 H7          4.4297   -0.5489   -0.3097 H         1 <0>         0.1177
     32 H8          4.3018    0.9628    0.6520 H         1 <0>         0.1158
     33 H9          2.3834   -1.9419   -0.0539 H         1 <0>         0.2029
     34 H10        -0.3688    3.2016   -0.1927 H         1 <0>         0.4519
     35 H11        -2.2254    0.7312    0.0966 H         1 <0>         0.1772
     36 H12        -6.3602    2.9801   -0.4345 H         1 <0>         0.4276
     37 H13        -5.0219    4.3303   -0.5609 H         1 <0>         0.4169
     38 H14        -1.9539    5.7636   -1.5118 H         1 <0>         0.4250
     39 H15        -2.2281    4.0746   -2.3496 H         1 <0>         0.4251
@<TRIPOS>BOND
     1    1    6 ar
     2    1    2 ar
     3    1   25 1
     4    2    3 ar
     5    2   26 1
     6    3    4 ar
     7    3   27 1
     8    4    5 ar
     9    4    7 1
    10    5    6 ar
    11    5   28 1
    12    6   29 1
    13    7    8 am
    14    7   30 1
    15    8    9 2
    16    8   10 1
    17   10   11 1
    18   10   31 1
    19   10   32 1
    20   11   15 1
    21   11   12 2
    22   12   13 1
    23   12   33 1
    24   13   14 1
    25   14   15 2
    26   14   16 1
    27   16   17 1
    28   16   34 1
    29   17   18 2
    30   17   35 1
    31   18   19 1
    32   18   22 1
    33   19   20 2
    34   19   21 am
    35   21   36 1
    36   21   37 1
    37   22   23 2
    38   22   24 am
    39   24   38 1
    40   24   39 1
@<TRIPOS>MOLECULE
ZINC26959100
   52    52     0     0     0
SMALL
USER_CHARGES
[(1R,2S)-1-[[(2-ethyl-6-methyl-phenyl)carbamothioylamino]carbamoyl]-2-methyl-butyl]urea
@<TRIPOS>ATOM
      1 C1         -2.8559    1.1000    7.7437 C.3       1 <0>        -0.1458
      2 C2         -1.5350    0.3618    7.5173 C.3       1 <0>        -0.0884
      3 C3         -1.7649   -1.1237    7.6251 C.ar      1 <0>        -0.0682
      4 C4         -1.5410   -1.7728    8.8237 C.ar      1 <0>        -0.1210
      5 C5         -1.7512   -3.1357    8.9232 C.ar      1 <0>        -0.0996
      6 C6         -2.1857   -3.8536    7.8238 C.ar      1 <0>        -0.1200
      7 C7         -2.4173   -3.2096    6.6244 C.ar      1 <0>        -0.0313
      8 C8         -2.2016   -1.8415    6.5195 C.ar      1 <0>         0.1310
      9 N1         -2.4292   -1.1871    5.3042 N.pl3     1 <0>        -0.6431
     10 C9         -1.6872   -1.4970    4.2227 C.2       1 <0>         0.5624
     11 S1         -0.5321   -2.7576    4.3097 S.2       1 <0>        -0.5845
     12 N2         -1.8544   -0.8145    3.0726 N.pl3     1 <0>        -0.4774
     13 N3         -2.7996    0.2172    3.0014 N.am      1 <0>        -0.5614
     14 C10        -2.9669    0.8997    1.8513 C.2       1 <0>         0.5090
     15 O1         -2.2991    0.6209    0.8781 O.2       1 <0>        -0.4961
     16 C11        -3.9836    2.0094    1.7747 C.3       1 <0>         0.1777
     17 H1         -4.9072    1.7046    2.2885 H         1 <0>         0.1107
     18 C12        -3.4009    3.2790    2.3989 C.3       1 <0>        -0.1121
     19 H2         -2.4948    3.5751    1.8499 H         1 <0>         0.1183
     20 C13        -4.4340    4.4050    2.3230 C.3       1 <0>        -0.1394
     21 C14        -3.0454    3.0108    3.8626 C.3       1 <0>        -0.1331
     22 C15        -2.3491    4.2393    4.4516 C.3       1 <0>        -0.1516
     23 N4         -4.3222    2.2656    0.3726 N.am      1 <0>        -0.7466
     24 C16        -3.3857    2.7443   -0.4702 C.2       1 <0>         0.7169
     25 O2         -2.2817    3.0340   -0.0510 O.2       1 <0>        -0.5807
     26 N5         -3.6730    2.9020   -1.7775 N.am      1 <0>        -0.8913
     27 C17        -2.8977   -3.9914    5.4289 C.3       1 <0>        -0.1060
     28 H3         -2.6881    2.1843    7.6650 H         1 <0>         0.0629
     29 H4         -3.2428    0.8605    8.7452 H         1 <0>         0.0623
     30 H5         -3.5864    0.7859    6.9836 H         1 <0>         0.0453
     31 H6         -1.1481    0.6013    6.5158 H         1 <0>         0.0682
     32 H7         -0.8044    0.6759    8.2773 H         1 <0>         0.0786
     33 H8         -1.2010   -1.2152    9.6838 H         1 <0>         0.1260
     34 H9         -1.5754   -3.6409    9.8615 H         1 <0>         0.1257
     35 H10        -2.3490   -4.9181    7.9048 H         1 <0>         0.1271
     36 H11        -3.2138   -0.4196    5.2313 H         1 <0>         0.4074
     37 H12        -1.2488   -1.0675    2.1899 H         1 <0>         0.4892
     38 H13        -3.4052    0.4702    3.8842 H         1 <0>         0.4322
     39 H14        -4.0151    5.3178    2.7717 H         1 <0>         0.0632
     40 H15        -5.3400    4.1089    2.8721 H         1 <0>         0.0539
     41 H16        -4.6896    4.5978    1.2706 H         1 <0>         0.0563
     42 H17        -3.9640    2.8023    4.4307 H         1 <0>         0.0645
     43 H18        -2.3719    2.1432    3.9233 H         1 <0>         0.0633
     44 H19        -2.0935    4.0465    5.5040 H         1 <0>         0.0566
     45 H20        -3.0227    5.1068    4.3909 H         1 <0>         0.0605
     46 H21        -1.4306    4.4477    3.8834 H         1 <0>         0.0571
     47 H22        -5.3408    2.0673    0.0077 H         1 <0>         0.4225
     48 H23        -2.9087    3.2927   -2.4654 H         1 <0>         0.4378
     49 H24        -4.6718    2.6400   -2.1566 H         1 <0>         0.4108
     50 H25        -3.0244   -3.3119    4.5732 H         1 <0>         0.0552
     51 H26        -3.8609   -4.4673    5.6650 H         1 <0>         0.0580
     52 H27        -2.1584   -4.7657    5.1760 H         1 <0>         0.0869
@<TRIPOS>BOND
     1    1    2 1
     2    1   28 1
     3    1   29 1
     4    1   30 1
     5    2    3 1
     6    2   31 1
     7    2   32 1
     8    3    8 ar
     9    3    4 ar
    10    4    5 ar
    11    4   33 1
    12    5    6 ar
    13    5   34 1
    14    6    7 ar
    15    6   35 1
    16    7    8 ar
    17    7   27 1
    18    8    9 1
    19    9   10 1
    20    9   36 1
    21   10   11 2
    22   10   12 1
    23   12   13 1
    24   12   37 1
    25   13   14 am
    26   13   38 1
    27   14   15 2
    28   14   16 1
    29   16   17 1
    30   16   18 1
    31   16   23 1
    32   18   19 1
    33   18   20 1
    34   18   21 1
    35   20   39 1
    36   20   40 1
    37   20   41 1
    38   21   22 1
    39   21   42 1
    40   21   43 1
    41   22   44 1
    42   22   45 1
    43   22   46 1
    44   23   24 am
    45   23   47 1
    46   24   25 2
    47   24   26 am
    48   26   48 1
    49   26   49 1
    50   27   50 1
    51   27   51 1
    52   27   52 1
@<TRIPOS>MOLECULE
ZINC44932456
   37    38     0     0     0
SMALL
USER_CHARGES

@<TRIPOS>ATOM
      1 C1         -0.0187    1.5258    0.0104 C.3       1 <0>        -0.1512
      2 C2          0.0021   -0.0041    0.0020 C.3       1 <0>         0.2603
      3 H1          0.5123   -0.3556   -0.8948 H         1 <0>         0.1028
      4 C3          0.7309   -0.5033    1.2229 C.2       1 <0>         0.0233
      5 N1          1.9548   -1.0099    1.2604 N.2       1 <0>        -0.3684
      6 N2          2.2123   -1.3166    2.4860 N.2       1 <0>        -0.1805
      7 N3          1.1936   -1.0199    3.2154 N.2       1 <0>        -0.1823
      8 N4          0.2736   -0.5148    2.4665 N.2       1 <0>        -0.3817
      9 N5         -1.3723   -0.5112    0.0124 N.am      1 <0>        -0.6739
     10 C4         -2.0508   -0.6427   -1.1446 C.2       1 <0>         0.4971
     11 O1         -1.5236   -0.3413   -2.1944 O.2       1 <0>        -0.5340
     12 C5         -3.4646   -1.1643   -1.1339 C.3       1 <0>         0.0141
     13 H2         -4.0015   -0.7416   -0.2847 H         1 <0>         0.1661
     14 C6         -3.4446   -2.6897   -1.0166 C.3       1 <0>        -0.0948
     15 C7         -4.8556   -3.2018   -0.8823 C.ar      1 <0>        -0.1159
     16 C8         -5.4236   -3.3380    0.3707 C.ar      1 <0>        -0.0915
     17 C9         -6.7175   -3.8073    0.4992 C.ar      1 <0>        -0.1178
     18 C10        -7.4484   -4.1419   -0.6295 C.ar      1 <0>         0.0980
     19 C11        -6.8768   -4.0044   -1.8908 C.ar      1 <0>         0.0916
     20 C12        -5.5810   -3.5289   -2.0127 C.ar      1 <0>        -0.1515
     21 O2         -7.5900   -4.3315   -3.0015 O.3       1 <0>        -0.4820
     22 O3         -8.7212   -4.6042   -0.5049 O.3       1 <0>        -0.4836
     23 N6         -4.1386   -0.7780   -2.3807 N.4       1 <0>        -0.6197
     24 H3          1.0039    1.9031    0.0027 H         1 <0>         0.0743
     25 H4         -0.5459    1.8868   -0.8726 H         1 <0>         0.0564
     26 H5         -0.5289    1.8773    0.9072 H         1 <0>         0.0639
     27 H6         -1.7940   -0.7522    0.8520 H         1 <0>         0.4151
     28 H7         -2.9864   -3.1167   -1.9087 H         1 <0>         0.1098
     29 H8         -2.8680   -2.9790   -0.1380 H         1 <0>         0.1310
     30 H9         -4.8550   -3.0775    1.2512 H         1 <0>         0.1430
     31 H10        -7.1587   -3.9135    1.4792 H         1 <0>         0.1446
     32 H11        -5.1364   -3.4176   -2.9907 H         1 <0>         0.1356
     33 H12        -8.1013   -3.5984   -3.3707 H         1 <0>         0.3915
     34 H13        -9.3946   -3.9102   -0.5166 H         1 <0>         0.3950
     35 H14        -5.0852   -1.1272   -2.3736 H         1 <0>         0.4342
     36 H15        -4.1518    0.2280   -2.4581 H         1 <0>         0.4404
     37 H16        -3.6417   -1.1693   -3.1669 H         1 <0>         0.4407
@<TRIPOS>BOND
     1    1    2 1
     2    1   24 1
     3    1   25 1
     4    1   26 1
     5    2    3 1
     6    2    4 1
     7    2    9 1
     8    4    5 1
     9    4    8 2
    10    5    6 1
    11    6    7 2
    12    7    8 1
    13    9   10 am
    14    9   27 1
    15   10   11 2
    16   10   12 1
    17   12   13 1
    18   12   14 1
    19   12   23 1
    20   14   15 1
    21   14   28 1
    22   14   29 1
    23   15   20 ar
    24   15   16 ar
    25   16   17 ar
    26   16   30 1
    27   17   18 ar
    28   17   31 1
    29   18   19 ar
    30   18   22 1
    31   19   20 ar
    32   19   21 1
    33   20   32 1
    34   21   33 1
    35   22   34 1
    36   23   35 1
    37   23   36 1
    38   23   37 1
@<TRIPOS>MOLECULE
ZINC59378880
   44    45     0     0     0
SMALL
USER_CHARGES

@<TRIPOS>ATOM
      1 C1          0.1399    1.4729    0.1583 C.3       1 <0>         0.0184
      2 N1          0.1586    0.0041    0.1528 N.3       1 <0>        -0.5169
      3 C2          0.9316   -0.5169    1.2881 C.3       1 <0>         0.2849
      4 N2          0.0977   -0.5063    2.4926 N.pl3     1 <0>        -0.7290
      5 C3         -0.6010   -1.6588    2.8702 C.ar      1 <0>         0.2034
      6 C4         -0.5006   -2.8138    2.1084 C.ar      1 <0>        -0.1756
      7 C5         -1.1912   -3.9508    2.4837 C.ar      1 <0>        -0.0793
      8 C6         -1.9827   -3.9405    3.6173 C.ar      1 <0>        -0.1638
      9 C7         -2.0874   -2.7927    4.3815 C.ar      1 <0>        -0.0992
     10 C8         -1.3945   -1.6508    4.0153 C.ar      1 <0>         0.0239
     11 O1         -1.4925   -0.5228    4.7688 O.3       1 <0>        -0.4946
     12 C9          0.6805   -0.5110   -1.1201 C.3       1 <0>         0.2577
     13 H1          0.7009   -1.6004   -1.0904 H         1 <0>         0.0959
     14 C10        -0.2222   -0.0483   -2.2667 C.3       1 <0>         0.0970
     15 H2         -0.2755    1.0404   -2.2718 H         1 <0>         0.0780
     16 C11         0.3615   -0.5385   -3.5954 C.3       1 <0>         0.0361
     17 H3         -0.2457   -0.1653   -4.4202 H         1 <0>         0.0707
     18 C12         1.7939   -0.0143   -3.7355 C.3       1 <0>         0.0481
     19 H4          1.7814    1.0751   -3.7702 H         1 <0>         0.0806
     20 C13         2.6188   -0.4783   -2.5322 C.3       1 <0>         0.1145
     21 H5          3.6278   -0.0725   -2.6049 H         1 <0>         0.1170
     22 O2          2.0045   -0.0151   -1.3279 O.3       1 <0>        -0.3851
     23 C14         2.6834   -2.0068   -2.5168 C.3       1 <0>         0.0327
     24 O3          3.5763   -2.4355   -1.4867 O.3       1 <0>        -0.5715
     25 O4          2.3734   -0.5238   -4.9383 O.3       1 <0>        -0.5526
     26 O5          0.3693   -1.9673   -3.6160 O.3       1 <0>        -0.5402
     27 O6         -1.5329   -0.5897   -2.0909 O.3       1 <0>        -0.5284
     28 H6          1.1604    1.8495    0.0884 H         1 <0>         0.0410
     29 H7         -0.4389    1.8322   -0.6926 H         1 <0>         0.0672
     30 H8         -0.3155    1.8271    1.0831 H         1 <0>         0.0691
     31 H9          1.2481   -1.5378    1.0743 H         1 <0>         0.0914
     32 H10         1.8091    0.1096    1.4482 H         1 <0>         0.0646
     33 H11         0.0298    0.2995    3.0284 H         1 <0>         0.4015
     34 H12         0.1166   -2.8246    1.2223 H         1 <0>         0.1222
     35 H13        -1.1127   -4.8494    1.8898 H         1 <0>         0.1220
     36 H14        -2.5208   -4.8310    3.9066 H         1 <0>         0.1217
     37 H15        -2.7065   -2.7880    5.2664 H         1 <0>         0.1256
     38 H16        -2.2135    0.0651    4.5049 H         1 <0>         0.3785
     39 H17         1.6890   -2.4107   -2.3268 H         1 <0>         0.0865
     40 H18         3.0428   -2.3650   -3.4814 H         1 <0>         0.0608
     41 H19         3.6665   -3.3959   -1.4189 H         1 <0>         0.3804
     42 H20         1.8979   -0.2714   -5.7416 H         1 <0>         0.3855
     43 H21         0.7269   -2.3470   -4.4303 H         1 <0>         0.3821
     44 H22        -2.1591   -0.3368   -2.7830 H         1 <0>         0.3770
@<TRIPOS>BOND
     1    1    2 1
     2    1   28 1
     3    1   29 1
     4    1   30 1
     5    2    3 1
     6    2   12 1
     7    3    4 1
     8    3   31 1
     9    3   32 1
    10    4    5 1
    11    4   33 1
    12    5   10 ar
    13    5    6 ar
    14    6    7 ar
    15    6   34 1
    16    7    8 ar
    17    7   35 1
    18    8    9 ar
    19    8   36 1
    20    9   10 ar
    21    9   37 1
    22   10   11 1
    23   11   38 1
    24   12   13 1
    25   12   22 1
    26   12   14 1
    27   14   15 1
    28   14   16 1
    29   14   27 1
    30   16   17 1
    31   16   18 1
    32   16   26 1
    33   18   19 1
    34   18   20 1
    35   18   25 1
    36   20   21 1
    37   20   22 1
    38   20   23 1
    39   23   24 1
    40   23   39 1
    41   23   40 1
    42   24   41 1
    43   25   42 1
    44   26   43 1
    45   27   44 1
@<TRIPOS>MOLECULE
ZINC66714184
   49    51     0     0     0
SMALL
USER_CHARGES

@<TRIPOS>ATOM
      1 C1          0.0836    1.6990   -0.0260 C.3       1 <0>        -0.1283
      2 C2          0.0534    0.1938   -0.0915 C.ar      1 <0>        -0.0319
      3 C3         -0.7118   -0.4401   -1.0494 C.ar      1 <0>        -0.1124
      4 C4         -0.7425   -1.8204   -1.1140 C.ar      1 <0>        -0.0851
      5 C5         -0.0033   -2.5794   -0.2144 C.ar      1 <0>         0.1344
      6 C6          0.7683   -1.9525    0.7513 C.ar      1 <0>        -0.1082
      7 C7          0.8038   -0.5594    0.8128 C.ar      1 <0>        -0.1296
      8 C8          1.6292    0.1172    1.8362 C.2       1 <0>         0.5655
      9 O1          1.6061    1.3287    1.9320 O.2       1 <0>        -0.5305
     10 N1          2.4072   -0.6095    2.6627 N.am      1 <0>        -0.8518
     11 N2         -0.0386   -3.9768   -0.2833 N.am      1 <0>        -0.6769
     12 C9         -0.1290   -4.5904   -1.4799 C.2       1 <0>         0.4969
     13 O2         -0.2711   -3.9331   -2.4893 O.2       1 <0>        -0.4772
     14 C10        -0.0536   -6.0932   -1.5638 C.3       1 <0>         0.1673
     15 H1         -0.6076   -6.5317   -0.7338 H         1 <0>         0.1106
     16 C11         1.4094   -6.5352   -1.4905 C.3       1 <0>        -0.0594
     17 C12         1.4780   -8.0402   -1.4506 C.2       1 <0>        -0.1654
     18 C13         1.5566   -8.8070   -0.3517 C.2       1 <0>         0.0530
     19 N3          1.6010  -10.1278   -0.7065 N.pl3     1 <0>        -0.5949
     20 H2          1.6593  -10.8701   -0.0849 H         1 <0>         0.4162
     21 C14         1.5508  -10.2461   -2.0774 C.ar      1 <0>         0.0936
     22 C15         1.4651   -8.9439   -2.6035 C.ar      1 <0>        -0.0935
     23 C16         1.3937   -8.7539   -3.9845 C.ar      1 <0>        -0.0699
     24 C17         1.4037   -9.8356   -4.8196 C.ar      1 <0>        -0.1468
     25 C18         1.4839  -11.1223   -4.3056 C.ar      1 <0>        -0.0972
     26 C19         1.5647  -11.3323   -2.9461 C.ar      1 <0>        -0.1330
     27 N4         -0.6363   -6.5415   -2.8309 N.am      1 <0>        -0.7287
     28 C20        -0.1110   -6.1234   -3.9995 C.2       1 <0>         0.7155
     29 O3          0.8466   -5.3742   -4.0021 O.2       1 <0>        -0.5671
     30 N5         -0.6471   -6.5358   -5.1653 N.am      1 <0>        -0.8704
     31 H3          0.9641    2.0680   -0.5519 H         1 <0>         0.0734
     32 H4         -0.8146    2.1012   -0.4947 H         1 <0>         0.0591
     33 H5          0.1230    2.0167    1.0159 H         1 <0>         0.1017
     34 H6         -1.2889    0.1444   -1.7507 H         1 <0>         0.1336
     35 H7         -1.3432   -2.3108   -1.8657 H         1 <0>         0.1426
     36 H8          1.3430   -2.5406    1.4515 H         1 <0>         0.1287
     37 H9          2.4257   -1.5763    2.5862 H         1 <0>         0.3994
     38 H10         2.9487   -0.1657    3.3340 H         1 <0>         0.4059
     39 H11         0.0021   -4.5038    0.5301 H         1 <0>         0.4091
     40 H12         1.9435   -6.1703   -2.3678 H         1 <0>         0.1049
     41 H13         1.8678   -6.1266   -0.5900 H         1 <0>         0.0806
     42 H14         1.5815   -8.4364    0.6624 H         1 <0>         0.1695
     43 H15         1.3303   -7.7556   -4.3917 H         1 <0>         0.1247
     44 H16         1.3484   -9.6881   -5.8880 H         1 <0>         0.1201
     45 H17         1.4901  -11.9672   -4.9782 H         1 <0>         0.1240
     46 H18         1.6256  -12.3374   -2.5558 H         1 <0>         0.1183
     47 H19        -1.4003   -7.1392   -2.8288 H         1 <0>         0.4007
     48 H20        -1.4111   -7.1335   -5.1632 H         1 <0>         0.3944
     49 H21        -0.2690   -6.2349   -6.0063 H         1 <0>         0.4147
@<TRIPOS>BOND
     1    1    2 1
     2    1   31 1
     3    1   32 1
     4    1   33 1
     5    2    7 ar
     6    2    3 ar
     7    3    4 ar
     8    3   34 1
     9    4    5 ar
    10    4   35 1
    11    5    6 ar
    12    5   11 1
    13    6    7 ar
    14    6   36 1
    15    7    8 1
    16    8    9 2
    17    8   10 am
    18   10   37 1
    19   10   38 1
    20   11   12 am
    21   11   39 1
    22   12   13 2
    23   12   14 1
    24   14   15 1
    25   14   16 1
    26   14   27 1
    27   16   17 1
    28   16   40 1
    29   16   41 1
    30   17   22 1
    31   17   18 2
    32   18   19 1
    33   18   42 1
    34   19   20 1
    35   19   21 1
    36   21   26 ar
    37   21   22 ar
    38   22   23 ar
    39   23   24 ar
    40   23   43 1
    41   24   25 ar
    42   24   44 1
    43   25   26 ar
    44   25   45 1
    45   26   46 1
    46   27   28 am
    47   27   47 1
    48   28   29 2
    49   28   30 am
    50   30   48 1
    51   30   49 1
@<TRIPOS>MOLECULE
ZINC35367221
   35    36     0     0     0
SMALL
USER_CHARGES

@<TRIPOS>ATOM
      1 C1         -0.0167    1.3776    0.0096 C.ar      1 <0>        -0.1923
      2 C2          1.1849    2.0698    0.0019 C.ar      1 <0>         0.0269
      3 C3          2.3651    1.3426   -0.0133 C.ar      1 <0>        -0.7381
      4 C4          2.3054   -0.0383   -0.0202 C.ar      1 <0>         0.1991
      5 N1          1.1443   -0.6632   -0.0129 N.ar      1 <0>        -0.4940
      6 C5          0.0021   -0.0041    0.0020 C.ar      1 <0>         0.1535
      7 S1          3.9216    2.1683   -0.0243 S.o2      1 <0>         2.7027
      8 O1          4.8585    1.2613   -0.5889 O.2       1 <0>        -0.9498
      9 O2          3.6915    3.4615   -0.5664 O.2       1 <0>        -0.9523
     10 N2          4.3696    2.3898    1.5545 N.pl3     1 <0>        -1.1089
     11 C6          4.6556    1.2311    2.4042 C.3       1 <0>         0.0848
     12 C7          5.3918    1.6918    3.6638 C.3       1 <0>         0.1554
     13 H1          4.7682    2.3986    4.2111 H         1 <0>         0.1124
     14 C8          5.6860    0.4999    4.5379 C.ar      1 <0>        -0.1846
     15 C9          6.8231   -0.2548    4.3154 C.ar      1 <0>        -0.0573
     16 C10         7.0957   -1.3477    5.1145 C.ar      1 <0>        -0.1950
     17 C11         6.2261   -1.6885    6.1428 C.ar      1 <0>         0.2220
     18 C12         5.0847   -0.9282    6.3635 C.ar      1 <0>        -0.1973
     19 C13         4.8210    0.1668    5.5642 C.ar      1 <0>        -0.0559
     20 N3          6.4985   -2.7934    6.9526 N.pl3     1 <0>        -0.8769
     21 O3          6.6180    2.3255    3.2940 O.3       1 <0>        -0.5495
     22 H2         -0.9552    1.9117    0.0259 H         1 <0>         0.1486
     23 H3          1.2009    3.1496    0.0072 H         1 <0>         0.1535
     24 H4          3.2203   -0.6121   -0.0320 H         1 <0>         0.1725
     25 H5         -0.9294   -0.5505    0.0083 H         1 <0>         0.1669
     26 H6          4.4426    3.2867    1.9167 H         1 <0>         0.4244
     27 H7          3.7202    0.7478    2.6863 H         1 <0>         0.0760
     28 H8          5.2792    0.5243    1.8569 H         1 <0>         0.0876
     29 H9          7.4987    0.0105    3.5156 H         1 <0>         0.1220
     30 H10         7.9839   -1.9369    4.9400 H         1 <0>         0.1226
     31 H11         4.4063   -1.1906    7.1618 H         1 <0>         0.1217
     32 H12         3.9361    0.7610    5.7380 H         1 <0>         0.1230
     33 H13         7.2957   -3.3238    6.7973 H         1 <0>         0.3997
     34 H14         5.8905   -3.0304    7.6702 H         1 <0>         0.3994
     35 H15         7.2236    1.7537    2.8025 H         1 <0>         0.3772
@<TRIPOS>BOND
     1    1    6 ar
     2    1    2 ar
     3    1   22 1
     4    2    3 ar
     5    2   23 1
     6    3    4 ar
     7    3    7 1
     8    4    5 ar
     9    4   24 1
    10    5    6 ar
    11    6   25 1
    12    7    8 2
    13    7    9 2
    14    7   10 1
    15   10   11 1
    16   10   26 1
    17   11   12 1
    18   11   27 1
    19   11   28 1
    20   12   13 1
    21   12   14 1
    22   12   21 1
    23   14   19 ar
    24   14   15 ar
    25   15   16 ar
    26   15   29 1
    27   16   17 ar
    28   16   30 1
    29   17   18 ar
    30   17   20 1
    31   18   19 ar
    32   18   31 1
    33   19   32 1
    34   20   33 1
    35   20   34 1
    36   21   35 1
@<TRIPOS>MOLECULE
ZINC40514026
   40    41     0     0     0
SMALL
USER_CHARGES

@<TRIPOS>ATOM
      1 C1         -0.4970    1.5151    0.0452 C.3       1 <0>        -0.0784
      2 C2         -0.5587    0.0093    0.0410 C.2       1 <0>         0.0842
      3 C3         -0.7246   -0.6893   -1.1090 C.2       1 <0>        -0.2155
      4 S1         -0.7173   -2.3624   -0.4859 S.3       1 <0>         0.1012
      5 C4         -0.5075   -2.0025    1.1448 C.2       1 <0>         0.2706
      6 N1         -0.4480   -0.6884    1.1562 N.2       1 <0>        -0.5135
      7 N2         -0.4146   -2.8807    2.2182 N.am      1 <0>        -0.6240
      8 C5         -0.2457   -2.4030    3.4671 C.2       1 <0>         0.5130
      9 O1         -0.1747   -1.2068    3.6543 O.2       1 <0>        -0.4663
     10 C6         -0.1451   -3.3551    4.6308 C.3       1 <0>        -0.1586
     11 C7          0.0421   -2.5607    5.9250 C.3       1 <0>         0.2326
     12 H1          0.9054   -1.9028    5.8258 H         1 <0>         0.1099
     13 C8          0.2654   -3.5132    7.0712 C.ar      1 <0>        -0.1319
     14 C9         -0.0097   -4.8588    6.9157 C.ar      1 <0>        -0.0464
     15 C10         0.1951   -5.7327    7.9668 C.ar      1 <0>        -0.1343
     16 C11         0.6753   -5.2621    9.1750 C.ar      1 <0>        -0.0850
     17 C12         0.9515   -3.9174    9.3327 C.ar      1 <0>        -0.1613
     18 C13         0.7517   -3.0418    8.2787 C.ar      1 <0>         0.1120
     19 F1          1.0258   -1.7276    8.4303 F         1 <0>        -0.1381
     20 N3         -1.1562   -1.7584    6.1832 N.am      1 <0>        -0.7296
     21 C14        -2.3395   -2.3655    6.4015 C.2       1 <0>         0.7058
     22 O2         -2.3963   -3.5778    6.4757 O.2       1 <0>        -0.5888
     23 N4         -3.4599   -1.6288    6.5376 N.am      1 <0>        -0.8674
     24 C15        -0.8743   -0.1909   -2.5233 C.3       1 <0>        -0.0586
     25 H2          0.5369    1.8367   -0.0803 H         1 <0>         0.0755
     26 H3         -1.1010    1.9058   -0.7737 H         1 <0>         0.0753
     27 H4         -0.8822    1.8918    0.9927 H         1 <0>         0.0749
     28 H5         -0.4714   -3.8374    2.0684 H         1 <0>         0.4258
     29 H6         -1.0583   -3.9465    4.6964 H         1 <0>         0.1231
     30 H7          0.7076   -4.0183    4.4850 H         1 <0>         0.1135
     31 H8         -0.3851   -5.2275    5.9725 H         1 <0>         0.1338
     32 H9         -0.0205   -6.7839    7.8444 H         1 <0>         0.1291
     33 H10         0.8342   -5.9457    9.9959 H         1 <0>         0.1313
     34 H11         1.3262   -3.5500   10.2766 H         1 <0>         0.1339
     35 H12        -1.0979   -0.7903    6.1970 H         1 <0>         0.4052
     36 H13        -3.4146   -0.6617    6.4784 H         1 <0>         0.3974
     37 H14        -4.3115   -2.0657    6.6947 H         1 <0>         0.4144
     38 H15         0.1091   -0.1115   -2.9866 H         1 <0>         0.0780
     39 H16        -1.4883   -0.8896   -3.0916 H         1 <0>         0.0732
     40 H17        -1.3521    0.7888   -2.5147 H         1 <0>         0.0842
@<TRIPOS>BOND
     1    1    2 1
     2    1   25 1
     3    1   26 1
     4    1   27 1
     5    2    6 1
     6    2    3 2
     7    3    4 1
     8    3   24 1
     9    4    5 1
    10    5    6 2
    11    5    7 1
    12    7    8 am
    13    7   28 1
    14    8    9 2
    15    8   10 1
    16   10   11 1
    17   10   29 1
    18   10   30 1
    19   11   12 1
    20   11   13 1
    21   11   20 1
    22   13   18 ar
    23   13   14 ar
    24   14   15 ar
    25   14   31 1
    26   15   16 ar
    27   15   32 1
    28   16   17 ar
    29   16   33 1
    30   17   18 ar
    31   17   34 1
    32   18   19 1
    33   20   21 am
    34   20   35 1
    35   21   22 2
    36   21   23 am
    37   23   36 1
    38   23   37 1
    39   24   38 1
    40   24   39 1
    41   24   40 1
@<TRIPOS>MOLECULE
ZINC49114168
   43    43     0     0     0
SMALL
USER_CHARGES

@<TRIPOS>ATOM
      1 C1         -0.0187    1.5258    0.0104 C.3       1 <0>        -0.1529
      2 C2          0.0021   -0.0041    0.0020 C.3       1 <0>        -0.1170
      3 C3          0.7421   -0.5109    1.2415 C.3       1 <0>        -0.1356
      4 C4          0.7628   -2.0407    1.2331 C.3       1 <0>         0.1555
      5 H1         -0.2567   -2.4175    1.1513 H         1 <0>         0.1079
      6 C5          1.3823   -2.5418    2.5123 C.2       1 <0>         0.5007
      7 O1          2.5408   -2.9003    2.5252 O.2       1 <0>        -0.5016
      8 N1          0.6489   -2.5915    3.6419 N.am      1 <0>        -0.7265
      9 C6          1.2511   -3.0785    4.8854 C.3       1 <0>         0.2302
     10 H2          1.9608   -3.8739    4.6582 H         1 <0>         0.0890
     11 C7          1.9800   -1.9287    5.5836 C.3       1 <0>        -0.1571
     12 C8          0.1713   -3.6123    5.7911 C.2       1 <0>        -0.2494
     13 C9         -1.1931   -3.3160    5.7083 C.2       1 <0>         0.0552
     14 N2         -1.8110   -3.9659    6.6610 N.2       1 <0>        -0.2915
     15 N3         -0.8578   -4.6974    7.3813 N.pl3     1 <0>        -0.3709
     16 C10         0.3497   -4.4676    6.8244 C.2       1 <0>         0.0985
     17 C11         1.6622   -5.0554    7.2749 C.3       1 <0>        -0.0979
     18 C12        -1.1255   -5.5634    8.5323 C.3       1 <0>         0.0985
     19 N4          1.5508   -2.5122    0.0916 N.am      1 <0>        -0.7340
     20 C13         2.8492   -2.1683   -0.0190 C.2       1 <0>         0.7112
     21 O2          3.3667   -1.4669    0.8287 O.2       1 <0>        -0.5641
     22 N5          3.5741   -2.6020   -1.0692 N.am      1 <0>        -0.8706
     23 H3          1.0039    1.9031    0.0027 H         1 <0>         0.0546
     24 H4         -0.5459    1.8868   -0.8726 H         1 <0>         0.0543
     25 H5         -0.5289    1.8773    0.9072 H         1 <0>         0.0546
     26 H6         -1.0205   -0.3814    0.0098 H         1 <0>         0.0607
     27 H7          0.5123   -0.3556   -0.8948 H         1 <0>         0.0616
     28 H8          1.7647   -0.1336    1.2338 H         1 <0>         0.0966
     29 H9          0.2319   -0.1594    2.1383 H         1 <0>         0.0739
     30 H10        -0.2777   -2.3047    3.6316 H         1 <0>         0.3957
     31 H11         1.2703   -1.1333    5.8109 H         1 <0>         0.0568
     32 H12         2.4281   -2.2911    6.5088 H         1 <0>         0.0623
     33 H13         2.7610   -1.5426    4.9286 H         1 <0>         0.0644
     34 H14        -1.6566   -2.6635    4.9831 H         1 <0>         0.1793
     35 H15         2.1172   -4.4010    8.0185 H         1 <0>         0.0840
     36 H16         1.4888   -6.0382    7.7132 H         1 <0>         0.0727
     37 H17         2.3299   -5.1520    6.4188 H         1 <0>         0.0885
     38 H18        -1.3265   -6.5769    8.1853 H         1 <0>         0.0760
     39 H19        -0.2573   -5.5704    9.1913 H         1 <0>         0.0881
     40 H20        -1.9917   -5.1871    9.0764 H         1 <0>         0.0914
     41 H21         1.1380   -3.0718   -0.5847 H         1 <0>         0.3994
     42 H22         3.1613   -3.1616   -1.7454 H         1 <0>         0.3934
     43 H23         4.5086   -2.3545   -1.1488 H         1 <0>         0.4143
@<TRIPOS>BOND
     1    1    2 1
     2    1   23 1
     3    1   24 1
     4    1   25 1
     5    2    3 1
     6    2   26 1
     7    2   27 1
     8    3    4 1
     9    3   28 1
    10    3   29 1
    11    4    5 1
    12    4    6 1
    13    4   19 1
    14    6    7 2
    15    6    8 am
    16    8    9 1
    17    8   30 1
    18    9   10 1
    19    9   11 1
    20    9   12 1
    21   11   31 1
    22   11   32 1
    23   11   33 1
    24   12   16 2
    25   12   13 1
    26   13   14 2
    27   13   34 1
    28   14   15 1
    29   15   16 1
    30   15   18 1
    31   16   17 1
    32   17   35 1
    33   17   36 1
    34   17   37 1
    35   18   38 1
    36   18   39 1
    37   18   40 1
    38   19   20 am
    39   19   41 1
    40   20   21 2
    41   20   22 am
    42   22   42 1
    43   22   43 1
@<TRIPOS>MOLECULE
ZINC07502831
   32    33     0     0     0
SMALL
USER_CHARGES

@<TRIPOS>ATOM
      1 C1         -0.0163    1.3513    0.0095 C.2       1 <0>        -0.1574
      2 C2          1.1833    2.0380    0.0017 C.2       1 <0>        -0.1536
      3 C3          2.3426    1.3358   -0.0131 C.2       1 <0>        -0.1450
      4 S1          1.7535   -0.3495   -0.0166 S.3       1 <0>         0.0357
      5 C4          0.0021   -0.0041    0.0020 C.2       1 <0>        -0.1714
      6 C5          3.7608    1.8454   -0.0244 C.3       1 <0>        -0.0243
      7 C6          4.2547    2.0106    1.4143 C.3       1 <0>        -0.1079
      8 C7          5.6729    2.5202    1.4030 C.2       1 <0>         0.4693
      9 O1          6.2312    2.7298    0.3522 O.2       1 <0>        -0.4997
     10 O2          6.3158    2.7413    2.5604 O.3       1 <0>        -0.3432
     11 C8          7.6580    3.2243    2.4750 C.3       1 <0>         0.1401
     12 C9          8.2136    3.4120    3.8632 C.ar      1 <0>         0.4329
     13 N1          8.0645    4.5703    4.4816 N.ar      1 <0>        -0.6210
     14 C10         8.5534    4.7399    5.7080 C.ar      1 <0>         0.6338
     15 N2          9.1921    3.7427    6.3103 N.ar      1 <0>        -0.6499
     16 C11         9.3400    2.5797    5.6853 C.ar      1 <0>         0.6338
     17 N3          8.8439    2.4162    4.4610 N.ar      1 <0>        -0.6208
     18 N4         10.0026    1.5408    6.3067 N.pl3     1 <0>        -0.8024
     19 N5          8.3976    5.9499    6.3527 N.pl3     1 <0>        -0.8024
     20 H1         -0.9542    1.8866    0.0258 H         1 <0>         0.1344
     21 H2          1.1967    3.1179    0.0070 H         1 <0>         0.1344
     22 H3         -0.8275   -0.6955    0.0065 H         1 <0>         0.1858
     23 H4          4.3986    1.1333   -0.5480 H         1 <0>         0.0917
     24 H5          3.7967    2.8084   -0.5337 H         1 <0>         0.0988
     25 H6          3.6169    2.7226    1.9379 H         1 <0>         0.1132
     26 H7          4.2187    1.0476    1.9236 H         1 <0>         0.1119
     27 H8          8.2699    2.5031    1.9332 H         1 <0>         0.1025
     28 H9          7.6680    4.1781    1.9476 H         1 <0>         0.1025
     29 H10        10.3607    1.6595    7.2003 H         1 <0>         0.4187
     30 H11        10.1102    0.6919    5.8498 H         1 <0>         0.4204
     31 H12         7.9315    6.6777    5.9123 H         1 <0>         0.4203
     32 H13         8.7542    6.0728    7.2464 H         1 <0>         0.4187
@<TRIPOS>BOND
     1    1    5 2
     2    1    2 1
     3    1   20 1
     4    2    3 2
     5    2   21 1
     6    3    4 1
     7    3    6 1
     8    4    5 1
     9    5   22 1
    10    6    7 1
    11    6   23 1
    12    6   24 1
    13    7    8 1
    14    7   25 1
    15    7   26 1
    16    8    9 2
    17    8   10 1
    18   10   11 1
    19   11   12 1
    20   11   27 1
    21   11   28 1
    22   12   17 ar
    23   12   13 ar
    24   13   14 ar
    25   14   15 ar
    26   14   19 1
    27   15   16 ar
    28   16   17 ar
    29   16   18 1
    30   18   29 1
    31   18   30 1
    32   19   31 1
    33   19   32 1
@<TRIPOS>MOLECULE
ZINC66519288
   41    42     0     0     0
SMALL
USER_CHARGES

@<TRIPOS>ATOM
      1 C1         -0.0167    1.3942    0.0271 C.ar      1 <0>         0.0030
      2 C2          1.1622    2.0942    0.0196 C.ar      1 <0>        -0.2158
      3 C3          2.3771    1.4147   -0.0130 C.ar      1 <0>         0.2610
      4 C4          2.3993    0.0228   -0.0385 C.ar      1 <0>        -0.2164
      5 C5          1.2241   -0.6834   -0.0312 C.ar      1 <0>        -0.0044
      6 C6          0.0021   -0.0041    0.0020 C.ar      1 <0>        -0.1965
      7 C7         -1.2631   -0.7599    0.0105 C.2       1 <0>         0.5175
      8 O1         -2.3241   -0.1682    0.0394 O.2       1 <0>        -0.5143
      9 O2         -1.2433   -2.1071   -0.0137 O.3       1 <0>        -0.3282
     10 C8         -2.5067   -2.7748   -0.0036 C.3       1 <0>         0.0469
     11 C9         -2.2874   -4.2655   -0.0338 C.2       1 <0>         0.5203
     12 O3         -1.1602   -4.7121   -0.0612 O.2       1 <0>        -0.5193
     13 N1         -3.3439   -5.1023   -0.0304 N.am      1 <0>        -0.8495
     14 N2          3.5705    2.1277   -0.0206 N.pl3     1 <0>        -0.6164
     15 C10         4.8602    1.4294    0.0674 C.3       1 <0>         0.1103
     16 C11         5.7425    1.8738   -1.1034 C.3       1 <0>        -0.1356
     17 C12         5.8529    3.4002   -1.1030 C.3       1 <0>        -0.1113
     18 C13         4.4628    4.0139   -1.2855 C.3       1 <0>        -0.1262
     19 H1          4.0296    3.6615   -2.2215 H         1 <0>         0.1044
     20 C14         3.5663    3.5933   -0.1229 C.3       1 <0>         0.1346
     21 C15         4.5767    5.5163   -1.3182 C.2       1 <0>         0.5253
     22 O4          3.9961    6.1866   -0.4908 O.2       1 <0>        -0.5393
     23 N3          5.3236    6.1150   -2.2669 N.am      1 <0>        -0.8531
     24 H2         -0.9586    1.9218    0.0569 H         1 <0>         0.1370
     25 H3          1.1484    3.1740    0.0386 H         1 <0>         0.1344
     26 H4          3.3433   -0.5012   -0.0645 H         1 <0>         0.1331
     27 H5          1.2420   -1.7631   -0.0513 H         1 <0>         0.1401
     28 H6         -3.0525   -2.5061    0.9008 H         1 <0>         0.1010
     29 H7         -3.0833   -2.4746   -0.8786 H         1 <0>         0.1009
     30 H8         -4.2455   -4.7450   -0.0084 H         1 <0>         0.4047
     31 H9         -3.2027   -6.0617   -0.0498 H         1 <0>         0.4099
     32 H10         5.3484    1.6810    1.0089 H         1 <0>         0.0701
     33 H11         4.6973    0.3529    0.0142 H         1 <0>         0.0915
     34 H12         6.7355    1.4372   -0.9968 H         1 <0>         0.0831
     35 H13         5.2971    1.5415   -2.0411 H         1 <0>         0.0723
     36 H14         6.2754    3.7335   -0.1551 H         1 <0>         0.0730
     37 H15         6.5002    3.7177   -1.9205 H         1 <0>         0.0726
     38 H16         2.5499    3.9442   -0.3017 H         1 <0>         0.0944
     39 H17         3.9466    4.0253    0.8028 H         1 <0>         0.0783
     40 H18         5.7880    5.5789   -2.9286 H         1 <0>         0.4022
     41 H19         5.3969    7.0820   -2.2879 H         1 <0>         0.4043
@<TRIPOS>BOND
     1    1    6 ar
     2    1    2 ar
     3    1   24 1
     4    2    3 ar
     5    2   25 1
     6    3    4 ar
     7    3   14 1
     8    4    5 ar
     9    4   26 1
    10    5    6 ar
    11    5   27 1
    12    6    7 1
    13    7    8 2
    14    7    9 1
    15    9   10 1
    16   10   11 1
    17   10   28 1
    18   10   29 1
    19   11   12 2
    20   11   13 am
    21   13   30 1
    22   13   31 1
    23   14   20 1
    24   14   15 1
    25   15   16 1
    26   15   32 1
    27   15   33 1
    28   16   17 1
    29   16   34 1
    30   16   35 1
    31   17   18 1
    32   17   36 1
    33   17   37 1
    34   18   19 1
    35   18   20 1
    36   18   21 1
    37   20   38 1
    38   20   39 1
    39   21   22 2
    40   21   23 am
    41   23   40 1
    42   23   41 1
@<TRIPOS>MOLECULE
ZINC37271736
   37    37     0     0     0
SMALL
USER_CHARGES

@<TRIPOS>ATOM
      1 C1          0.2163    1.6069    0.4295 C.3       1 <0>         0.0849
      2 N1         -0.0136    0.2019    0.0840 N.am      1 <0>        -0.7294
      3 C2         -1.2692   -0.2869    0.0501 C.2       1 <0>         0.4821
      4 O1         -2.2086    0.4363    0.3055 O.2       1 <0>        -0.5237
      5 C3         -1.5057   -1.7322   -0.3054 C.3       1 <0>         0.0923
      6 N2         -2.9430   -2.0142   -0.2727 N.pl3     1 <0>        -0.9810
      7 C4         -3.7711   -1.7354   -1.4485 C.3       1 <0>         0.0933
      8 S1         -3.6315   -2.6482    1.0935 S.o2      1 <0>         2.6091
      9 O2         -4.7799   -3.3455    0.6307 O.2       1 <0>        -0.9391
     10 O3         -2.5754   -3.3424    1.7431 O.2       1 <0>        -0.9568
     11 C5         -4.1295   -1.2071    2.0763 C.3       1 <0>        -0.5925
     12 C6         -4.7749   -1.6710    3.3567 C.ar      1 <0>        -0.0517
     13 C7         -6.1138   -2.0031    3.3752 C.ar      1 <0>        -0.1040
     14 C8         -6.7079   -2.4292    4.5497 C.ar      1 <0>        -0.0935
     15 C9         -5.9649   -2.5254    5.7132 C.ar      1 <0>        -0.1051
     16 C10        -4.6254   -2.1971    5.7090 C.ar      1 <0>        -0.0798
     17 C11        -4.0179   -1.7713    4.5256 C.ar      1 <0>        -0.0864
     18 C12        -2.5833   -1.4231    4.5122 C.2       1 <0>         0.3882
     19 S2         -2.0949    0.2025    4.7352 S.2       1 <0>        -0.5351
     20 N3         -1.6581   -2.3850    4.3244 N.pl3     1 <0>        -0.7373
     21 H1          1.2856    1.8167    0.4052 H         1 <0>         0.0772
     22 H2         -0.2959    2.2463   -0.2894 H         1 <0>         0.0608
     23 H3         -0.1697    1.8029    1.4299 H         1 <0>         0.0660
     24 H4          0.7377   -0.3766   -0.1203 H         1 <0>         0.4035
     25 H5         -1.1197   -1.9282   -1.3057 H         1 <0>         0.1198
     26 H6         -0.9935   -2.3717    0.4135 H         1 <0>         0.1240
     27 H7         -3.7982   -2.6156   -2.0908 H         1 <0>         0.0667
     28 H8         -4.7833   -1.4872   -1.1294 H         1 <0>         0.0751
     29 H9         -3.3479   -0.8959   -2.0002 H         1 <0>         0.0771
     30 H10        -3.2511   -0.6053    2.3095 H         1 <0>         0.1513
     31 H11        -4.8402   -0.6075    1.5076 H         1 <0>         0.1529
     32 H12        -6.6996   -1.9299    2.4708 H         1 <0>         0.1416
     33 H13        -7.7565   -2.6875    4.5586 H         1 <0>         0.1387
     34 H14        -6.4352   -2.8581    6.6268 H         1 <0>         0.1391
     35 H15        -4.0468   -2.2724    6.6178 H         1 <0>         0.1359
     36 H16        -1.9349   -3.3060    4.1980 H         1 <0>         0.4131
     37 H17        -0.7155   -2.1562    4.3156 H         1 <0>         0.4228
@<TRIPOS>BOND
     1    1    2 1
     2    1   21 1
     3    1   22 1
     4    1   23 1
     5    2    3 am
     6    2   24 1
     7    3    4 2
     8    3    5 1
     9    5    6 1
    10    5   25 1
    11    5   26 1
    12    6    7 1
    13    6    8 1
    14    7   27 1
    15    7   28 1
    16    7   29 1
    17    8    9 2
    18    8   10 2
    19    8   11 1
    20   11   12 1
    21   11   30 1
    22   11   31 1
    23   12   17 ar
    24   12   13 ar
    25   13   14 ar
    26   13   32 1
    27   14   15 ar
    28   14   33 1
    29   15   16 ar
    30   15   34 1
    31   16   17 ar
    32   16   35 1
    33   17   18 1
    34   18   19 2
    35   18   20 1
    36   20   36 1
    37   20   37 1
@<TRIPOS>MOLECULE
ZINC41473802
   44    45     0     0     0
SMALL
USER_CHARGES

@<TRIPOS>ATOM
      1 C1         -3.3921   -2.8716    0.3162 C.3       1 <0>        -0.1512
      2 C2         -2.3587   -3.4723   -0.6016 C.ar      1 <0>         0.2413
      3 C3         -1.3973   -2.6458   -1.1679 C.ar      1 <0>        -0.0823
      4 C4         -0.4408   -3.1846   -2.0132 C.ar      1 <0>         0.3437
      5 C5         -0.4881   -4.5769   -2.2650 C.ar      1 <0>        -0.0729
      6 C6          0.4442   -5.1974   -3.1079 C.ar      1 <0>        -0.0939
      7 C7          0.3660   -6.5421   -3.3257 C.ar      1 <0>         0.1109
      8 C8         -0.6309   -7.3061   -2.7193 C.ar      1 <0>        -0.0816
      9 C9         -1.5504   -6.7327   -1.8959 C.ar      1 <0>        -0.1114
     10 C10        -1.5004   -5.3499   -1.6486 C.ar      1 <0>         0.1288
     11 N1         -2.3895   -4.7628   -0.8387 N.ar      1 <0>        -0.4703
     12 F1          1.2643   -7.1402   -4.1385 F         1 <0>        -0.1200
     13 N2          0.5321   -2.3852   -2.5946 N.pl3     1 <0>        -0.7834
     14 C11         0.2179   -1.6038   -3.7933 C.3       1 <0>         0.1340
     15 C12         0.4159   -2.4743   -5.0359 C.3       1 <0>        -0.1440
     16 C13         0.0878   -1.6583   -6.2878 C.3       1 <0>        -0.1165
     17 C14         0.2858   -2.5288   -7.5304 C.3       1 <0>        -0.1198
     18 C15        -0.0423   -1.7128   -8.7823 C.3       1 <0>         0.0732
     19 O1          0.1427   -2.5258   -9.9429 O.3       1 <0>        -0.5771
     20 C16        -1.3947   -1.1696   -0.8651 C.3       1 <0>        -0.1588
     21 C17        -0.4371   -0.8902    0.2645 C.2       1 <0>         0.5027
     22 O2          0.1855   -1.8051    0.7762 O.co2     1 <0>        -0.6889
     23 O3         -0.2850    0.2506    0.6667 O.co2     1 <0>        -0.6723
     24 H1         -3.0219   -2.8892    1.3412 H         1 <0>         0.1239
     25 H2         -3.5878   -1.8415    0.0182 H         1 <0>         0.1212
     26 H3         -4.3141   -3.4495    0.2529 H         1 <0>         0.0957
     27 H4          1.2197   -4.6145   -3.5825 H         1 <0>         0.1650
     28 H5         -0.6740   -8.3690   -2.9063 H         1 <0>         0.1615
     29 H6         -2.3164   -7.3382   -1.4343 H         1 <0>         0.1611
     30 H7          1.4205   -2.3434   -2.2075 H         1 <0>         0.4214
     31 H8         -0.8179   -1.2675   -3.7467 H         1 <0>         0.0686
     32 H9          0.8788   -0.7387   -3.8467 H         1 <0>         0.0898
     33 H10         1.4517   -2.8106   -5.0826 H         1 <0>         0.0714
     34 H11        -0.2450   -3.3395   -4.9825 H         1 <0>         0.0605
     35 H12        -0.9480   -1.3220   -6.2412 H         1 <0>         0.0659
     36 H13         0.7487   -0.7932   -6.3412 H         1 <0>         0.0706
     37 H14         1.3216   -2.8651   -7.5771 H         1 <0>         0.0705
     38 H15        -0.3751   -3.3939   -7.4770 H         1 <0>         0.0670
     39 H16        -1.0781   -1.3764   -8.7357 H         1 <0>         0.0449
     40 H17         0.6186   -0.8476   -8.8357 H         1 <0>         0.0468
     41 H18        -0.0478   -2.0721  -10.7753 H         1 <0>         0.3819
     42 H19        -1.0821   -0.6174   -1.7514 H         1 <0>         0.0941
     43 H20        -2.3980   -0.8560   -0.5768 H         1 <0>         0.0887
     44 H21        -3.0762   -5.3042   -0.4190 H         1 <0>         0.4395
@<TRIPOS>BOND
     1    1    2 1
     2    1   24 1
     3    1   25 1
     4    1   26 1
     5    2   11 ar
     6    2    3 ar
     7    3    4 ar
     8    3   20 1
     9    4    5 ar
    10    4   13 1
    11    5   10 ar
    12    5    6 ar
    13    6    7 ar
    14    6   27 1
    15    7    8 ar
    16    7   12 1
    17    8    9 ar
    18    8   28 1
    19    9   10 ar
    20    9   29 1
    21   10   11 ar
    22   11   44 1
    23   13   14 1
    24   13   30 1
    25   14   15 1
    26   14   31 1
    27   14   32 1
    28   15   16 1
    29   15   33 1
    30   15   34 1
    31   16   17 1
    32   16   35 1
    33   16   36 1
    34   17   18 1
    35   17   37 1
    36   17   38 1
    37   18   19 1
    38   18   39 1
    39   18   40 1
    40   19   41 1
    41   20   21 1
    42   20   42 1
    43   20   43 1
    44   21   22 2
    45   21   23 1
@<TRIPOS>MOLECULE
ZINC49087601
   36    37     0     0     0
SMALL
USER_CHARGES

@<TRIPOS>ATOM
      1 C1         -0.0163    1.3513    0.0095 C.2       1 <0>        -0.1594
      2 C2          1.1833    2.0380    0.0017 C.2       1 <0>        -0.1445
      3 C3          2.3426    1.3358   -0.0131 C.2       1 <0>        -0.1511
      4 S1          1.7535   -0.3495   -0.0166 S.3       1 <0>         0.0439
      5 C4          0.0021   -0.0041    0.0020 C.2       1 <0>        -0.1661
      6 C5          3.7608    1.8454   -0.0244 C.3       1 <0>        -0.0465
      7 C6          4.2547    2.0106    1.4143 C.3       1 <0>         0.1259
      8 N1          5.6334    2.5060    1.4033 N.pl3     1 <0>        -0.6859
      9 C7          6.2789    2.7280    2.5654 C.2       1 <0>         0.5598
     10 S2          5.4878    2.4310    4.0544 S.2       1 <0>        -0.5827
     11 N2          7.5472    3.1838    2.5554 N.pl3     1 <0>        -0.4696
     12 N3          8.1946    3.4268    1.3370 N.am      1 <0>        -0.5497
     13 C8          9.4629    3.8826    1.3269 C.2       1 <0>         0.5039
     14 O1         10.0438    4.0824    2.3727 O.2       1 <0>        -0.4976
     15 C9         10.1593    4.1441    0.0163 C.3       1 <0>         0.0789
     16 H1          9.5699    4.8376   -0.5835 H         1 <0>         0.1181
     17 C10        10.3473    2.8174   -0.7506 C.3       1 <0>        -0.1520
     18 C11        11.7627    2.9903   -1.3661 C.3       1 <0>        -0.1537
     19 C12        12.4688    3.8075   -0.2550 C.3       1 <0>         0.0441
     20 O2         11.4594    4.6944    0.2581 O.3       1 <0>        -0.3455
     21 H2         -0.9542    1.8866    0.0258 H         1 <0>         0.1358
     22 H3          1.1967    3.1179    0.0070 H         1 <0>         0.1340
     23 H4         -0.8275   -0.6955    0.0065 H         1 <0>         0.1872
     24 H5          4.3986    1.1333   -0.5480 H         1 <0>         0.0870
     25 H6          3.7967    2.8084   -0.5337 H         1 <0>         0.0939
     26 H7          3.6169    2.7226    1.9379 H         1 <0>         0.0971
     27 H8          4.2187    1.0476    1.9236 H         1 <0>         0.0960
     28 H9          6.0816    2.6743    0.5597 H         1 <0>         0.3910
     29 H10         8.0118    3.3436    3.3918 H         1 <0>         0.4597
     30 H11         7.7300    3.2671    0.5006 H         1 <0>         0.4188
     31 H12        10.3222    1.9679   -0.0681 H         1 <0>         0.0851
     32 H13         9.5949    2.7111   -1.5320 H         1 <0>         0.0978
     33 H14        12.2479    2.0253   -1.5125 H         1 <0>         0.0926
     34 H15        11.7194    3.5518   -2.2993 H         1 <0>         0.0874
     35 H16        12.8267    3.1445    0.5327 H         1 <0>         0.0680
     36 H17        13.2964    4.3796   -0.6741 H         1 <0>         0.0982
@<TRIPOS>BOND
     1    1    5 2
     2    1    2 1
     3    1   21 1
     4    2    3 2
     5    2   22 1
     6    3    4 1
     7    3    6 1
     8    4    5 1
     9    5   23 1
    10    6    7 1
    11    6   24 1
    12    6   25 1
    13    7    8 1
    14    7   26 1
    15    7   27 1
    16    8    9 1
    17    8   28 1
    18    9   10 2
    19    9   11 1
    20   11   12 1
    21   11   29 1
    22   12   13 am
    23   12   30 1
    24   13   14 2
    25   13   15 1
    26   15   16 1
    27   15   20 1
    28   15   17 1
    29   17   18 1
    30   17   31 1
    31   17   32 1
    32   18   19 1
    33   18   33 1
    34   18   34 1
    35   19   20 1
    36   19   35 1
    37   19   36 1
@<TRIPOS>MOLECULE
ZINC41385149
   42    42     0     0     0
SMALL
USER_CHARGES

@<TRIPOS>ATOM
      1 C1         -1.2641    1.1892   -0.1465 C.3       1 <0>        -0.1249
      2 C2         -0.5835   -0.1534   -0.0727 C.ar      1 <0>        -0.1003
      3 C3          0.0167   -0.6920   -1.2040 C.ar      1 <0>         0.1520
      4 C4          0.6430   -1.9299   -1.1318 C.ar      1 <0>        -0.1211
      5 C5          0.6674   -2.6216    0.0635 C.ar      1 <0>        -0.0908
      6 C6          0.0694   -2.0837    1.1880 C.ar      1 <0>        -0.1188
      7 C7         -0.5507   -0.8478    1.1216 C.ar      1 <0>        -0.0179
      8 Cl1        -1.2940   -0.1731    2.5379 Cl        1 <0>        -0.0588
      9 N1         -0.0099    0.0097   -2.4120 N.am      1 <0>        -0.6377
     10 C8          0.0954   -0.6548   -3.5798 C.2       1 <0>         0.5102
     11 O1          0.1124   -1.8685   -3.5880 O.2       1 <0>        -0.4945
     12 C9          0.1912    0.1021   -4.8637 C.2       1 <0>         0.5109
     13 O2          0.1742    1.3156   -4.8554 O.2       1 <0>        -0.5071
     14 N2          0.2964   -0.5624   -6.0315 N.am      1 <0>        -0.6990
     15 C10         0.3904    0.1801   -7.2909 C.3       1 <0>         0.1317
     16 C11         0.4998   -0.8048   -8.4567 C.3       1 <0>        -0.1567
     17 C12         0.5964   -0.0411   -9.7522 C.2       1 <0>         0.5189
     18 O3          0.5794    1.1716   -9.7439 O.2       1 <0>        -0.5327
     19 N3          0.7017   -0.7056  -10.9200 N.am      1 <0>        -0.7264
     20 C13         0.7956    0.0369  -12.1794 C.3       1 <0>         0.1345
     21 C14         2.2536    0.4230  -12.4363 C.3       1 <0>        -0.1651
     22 C15         0.2903   -0.8397  -13.3271 C.3       1 <0>        -0.1619
     23 H1         -0.5433    1.9748    0.0801 H         1 <0>         0.0807
     24 H2         -1.6625    1.3399   -1.1498 H         1 <0>         0.0692
     25 H3         -2.0787    1.2238    0.5770 H         1 <0>         0.0823
     26 H4          1.1101   -2.3512   -2.0096 H         1 <0>         0.1516
     27 H5          1.1540   -3.5842    0.1197 H         1 <0>         0.1387
     28 H6          0.0901   -2.6268    2.1213 H         1 <0>         0.1370
     29 H7         -0.1041    0.9751   -2.4101 H         1 <0>         0.4258
     30 H8          0.3100   -1.5323   -6.0381 H         1 <0>         0.4139
     31 H9         -0.5006    0.7952   -7.4174 H         1 <0>         0.0860
     32 H10         1.2732    0.8190   -7.2710 H         1 <0>         0.0859
     33 H11         1.3907   -1.4200   -8.3302 H         1 <0>         0.1050
     34 H12        -0.3831   -1.4438   -8.4765 H         1 <0>         0.1050
     35 H13         0.7152   -1.6755  -10.9266 H         1 <0>         0.4013
     36 H14         0.1867    0.9387  -12.1158 H         1 <0>         0.0894
     37 H15         2.8625   -0.4789  -12.4999 H         1 <0>         0.0570
     38 H16         2.3235    0.9754  -13.3733 H         1 <0>         0.0674
     39 H17         2.6136    1.0475  -11.6186 H         1 <0>         0.0608
     40 H18        -0.7484   -1.1147  -13.1441 H         1 <0>         0.0622
     41 H19         0.3602   -0.2872  -14.2641 H         1 <0>         0.0746
     42 H20         0.8992   -1.7415  -13.3907 H         1 <0>         0.0617
@<TRIPOS>BOND
     1    1    2 1
     2    1   23 1
     3    1   24 1
     4    1   25 1
     5    2    7 ar
     6    2    3 ar
     7    3    4 ar
     8    3    9 1
     9    4    5 ar
    10    4   26 1
    11    5    6 ar
    12    5   27 1
    13    6    7 ar
    14    6   28 1
    15    7    8 1
    16    9   10 am
    17    9   29 1
    18   10   11 2
    19   10   12 1
    20   12   13 2
    21   12   14 am
    22   14   15 1
    23   14   30 1
    24   15   16 1
    25   15   31 1
    26   15   32 1
    27   16   17 1
    28   16   33 1
    29   16   34 1
    30   17   18 2
    31   17   19 am
    32   19   20 1
    33   19   35 1
    34   20   21 1
    35   20   22 1
    36   20   36 1
    37   21   37 1
    38   21   38 1
    39   21   39 1
    40   22   40 1
    41   22   41 1
    42   22   42 1
@<TRIPOS>MOLECULE
ZINC06989679
   37    38     0     0     0
SMALL
USER_CHARGES

@<TRIPOS>ATOM
      1 C1         -0.0167    1.3789    0.0096 C.ar      1 <0>        -0.1127
      2 C2          1.1668    2.0884    0.0021 C.ar      1 <0>        -0.0533
      3 C3          2.3852    1.4079   -0.0132 C.ar      1 <0>        -0.1237
      4 C4          2.3983    0.0122   -0.0208 C.ar      1 <0>        -0.0773
      5 C5          1.2074   -0.6860   -0.0132 C.ar      1 <0>        -0.0433
      6 C6          0.0021   -0.0041    0.0020 C.ar      1 <0>        -0.0825
      7 Cl1         1.2206   -2.4219   -0.0233 Cl        1 <0>        -0.0589
      8 C7          3.6567    2.1623   -0.0218 C.2       1 <0>         0.5657
      9 O1          3.6423    3.3778   -0.0155 O.2       1 <0>        -0.5287
     10 N1          4.8318    1.5024   -0.0365 N.am      1 <0>        -0.7156
     11 C8          6.0917    2.2499   -0.0450 C.3       1 <0>         0.1017
     12 C9          7.2486    1.2843   -0.0612 C.2       1 <0>         0.5151
     13 O2          7.0411    0.0894   -0.0652 O.2       1 <0>        -0.5353
     14 N2          8.5138    1.7486   -0.0712 N.am      1 <0>        -0.7130
     15 C10         9.6384    0.8100   -0.0869 C.3       1 <0>         0.1008
     16 C11        10.9345    1.5789   -0.0956 C.2       1 <0>         0.5142
     17 O3         10.9201    2.7916   -0.0894 O.2       1 <0>        -0.5315
     18 N3         12.1095    0.9190   -0.1104 N.am      1 <0>        -0.6967
     19 C12        13.3694    1.6665   -0.1189 C.3       1 <0>         0.0742
     20 C13        14.4691    1.1868   -1.0684 C.3       1 <0>        -0.1905
     21 C14        14.6101    0.9663    0.4391 C.3       1 <0>        -0.1863
     22 H1         -0.9599    1.9048    0.0260 H         1 <0>         0.1430
     23 H2          1.1503    3.1682    0.0077 H         1 <0>         0.1452
     24 H3          3.3379   -0.5202   -0.0330 H         1 <0>         0.1386
     25 H4         -0.9271   -0.5545    0.0080 H         1 <0>         0.1407
     26 H5          4.8432    0.5325   -0.0416 H         1 <0>         0.4125
     27 H6          6.1333    2.8817   -0.9323 H         1 <0>         0.1070
     28 H7          6.1506    2.8727    0.8476 H         1 <0>         0.1070
     29 H8          8.6797    2.7043   -0.0680 H         1 <0>         0.4173
     30 H9          9.5968    0.1782    0.8004 H         1 <0>         0.1048
     31 H10         9.5794    0.1872   -0.9795 H         1 <0>         0.1047
     32 H11        12.1210   -0.0510   -0.1154 H         1 <0>         0.4063
     33 H12        13.2802    2.7401    0.0468 H         1 <0>         0.1404
     34 H13        14.2551    0.3150   -1.6867 H         1 <0>         0.0989
     35 H14        15.1035    1.9449   -1.5276 H         1 <0>         0.1051
     36 H15        15.3372    1.5793    0.9715 H         1 <0>         0.1064
     37 H16        14.4889   -0.0506    0.8125 H         1 <0>         0.0994
@<TRIPOS>BOND
     1    1    6 ar
     2    1    2 ar
     3    1   22 1
     4    2    3 ar
     5    2   23 1
     6    3    4 ar
     7    3    8 1
     8    4    5 ar
     9    4   24 1
    10    5    6 ar
    11    5    7 1
    12    6   25 1
    13    8    9 2
    14    8   10 am
    15   10   11 1
    16   10   26 1
    17   11   12 1
    18   11   27 1
    19   11   28 1
    20   12   13 2
    21   12   14 am
    22   14   15 1
    23   14   29 1
    24   15   16 1
    25   15   30 1
    26   15   31 1
    27   16   17 2
    28   16   18 am
    29   18   19 1
    30   18   32 1
    31   19   21 1
    32   19   20 1
    33   19   33 1
    34   20   21 1
    35   20   34 1
    36   20   35 1
    37   21   36 1
    38   21   37 1
@<TRIPOS>MOLECULE
ZINC19724123
   36    37     0     0     0
SMALL
USER_CHARGES
[(3S)-5-(3,4-dimethoxyphenyl)-1,1-dioxo-1,2,5-thiadiazolidin-3-yl]methanamine
@<TRIPOS>ATOM
      1 C1         -4.2168    5.6178    5.9283 C.3       1 <0>         0.0245
      2 O1         -4.6260    5.6438    4.5594 O.3       1 <0>        -0.3076
      3 C2         -3.8751    4.9308    3.6764 C.ar      1 <0>         0.0626
      4 C3         -2.7700    4.2230    4.1203 C.ar      1 <0>        -0.1396
      5 C4         -2.0060    3.4987    3.2248 C.ar      1 <0>        -0.1641
      6 C5         -2.3450    3.4781    1.8783 C.ar      1 <0>         0.2279
      7 C6         -3.4488    4.1906    1.4295 C.ar      1 <0>        -0.2362
      8 C7         -4.2175    4.9122    2.3279 C.ar      1 <0>         0.1408
      9 O2         -5.3022    5.6067    1.8915 O.3       1 <0>        -0.3031
     10 C8         -5.5944    5.5425    0.4942 C.3       1 <0>         0.0188
     11 N1         -1.5709    2.7439    0.9730 N.pl3     1 <0>        -0.9432
     12 C9         -0.7257    1.5774    1.2654 C.3       1 <0>         0.0731
     13 C10        -0.0127    1.0858    0.0080 C.3       1 <0>         0.0580
     14 H1         -0.0208   -0.0136   -0.0289 H         1 <0>         0.1077
     15 N2         -0.7243    1.5736   -1.1879 N.2       1 <0>        -1.0596
     16 S1         -1.4116    3.0076   -0.6688 S.o2      1 <0>         2.6045
     17 O3         -2.7209    3.0730   -1.2171 O.2       1 <0>        -1.0144
     18 O4         -0.4442    4.0340   -0.8419 O.2       1 <0>        -1.0495
     19 C11         1.4230    1.6145   -0.0029 C.3       1 <0>        -0.0238
     20 N3          2.0781    1.2267   -1.2592 N.4       1 <0>        -0.6656
     21 H2         -4.9054    6.2306    6.5285 H         1 <0>         0.0999
     22 H3         -3.1972    6.0215    6.0139 H         1 <0>         0.0530
     23 H4         -4.2328    4.5813    6.2961 H         1 <0>         0.0533
     24 H5         -2.5049    4.2375    5.1671 H         1 <0>         0.1371
     25 H6         -1.1446    2.9478    3.5726 H         1 <0>         0.1258
     26 H7         -3.7102    4.1788    0.3817 H         1 <0>         0.1545
     27 H8         -6.4897    6.1442    0.2788 H         1 <0>         0.1041
     28 H9         -5.7771    4.4969    0.2055 H         1 <0>         0.0619
     29 H10        -4.7413    5.9370   -0.0773 H         1 <0>         0.0570
     30 H11         0.0316    1.8519    2.0145 H         1 <0>         0.0726
     31 H12        -1.3502    0.7611    1.6574 H         1 <0>         0.0837
     32 H13         1.4105    2.7112    0.0808 H         1 <0>         0.1224
     33 H14         1.9772    1.1883    0.8464 H         1 <0>         0.1142
     34 H15         3.1103    1.6068   -1.2670 H         1 <0>         0.4407
     35 H16         1.5239    1.6529   -2.1084 H         1 <0>         0.4640
     36 H17         2.0906    0.1300   -1.3428 H         1 <0>         0.4444
@<TRIPOS>BOND
     1    1    2 1
     2    1   21 1
     3    1   22 1
     4    1   23 1
     5    2    3 1
     6    3    8 ar
     7    3    4 ar
     8    4    5 ar
     9    4   24 1
    10    5    6 ar
    11    5   25 1
    12    6    7 ar
    13    6   11 1
    14    7    8 ar
    15    7   26 1
    16    8    9 1
    17    9   10 1
    18   10   27 1
    19   10   28 1
    20   10   29 1
    21   11   16 1
    22   11   12 1
    23   12   13 1
    24   12   30 1
    25   12   31 1
    26   13   14 1
    27   13   15 1
    28   13   19 1
    29   15   16 1
    30   16   17 2
    31   16   18 2
    32   19   20 1
    33   19   32 1
    34   19   33 1
    35   20   34 1
    36   20   35 1
    37   20   36 1
@<TRIPOS>MOLECULE
ZINC37736100
   35    36     0     0     0
SMALL
USER_CHARGES

@<TRIPOS>ATOM
      1 C1         -0.0164    1.3586    0.0095 C.2       1 <0>        -0.0286
      2 C2          1.1935    2.0667    0.0018 C.2       1 <0>        -0.1633
      3 C3          2.3701    1.4009   -0.0130 C.2       1 <0>         0.0978
      4 N1          2.3995    0.0394   -0.0206 N.am      1 <0>        -0.4282
      5 C4          1.2364   -0.6790   -0.0129 C.2       1 <0>         0.3972
      6 C5          0.0021   -0.0041    0.0020 C.2       1 <0>        -0.1357
      7 N2          1.2565   -2.0107   -0.0199 N.2       1 <0>        -0.5331
      8 C6          2.3972   -2.6822   -0.0343 C.2       1 <0>         0.2246
      9 C7          3.5998   -2.0029   -0.0420 C.2       1 <0>        -0.3172
     10 C8          3.5868   -0.6033   -0.0354 C.2       1 <0>         0.5104
     11 O1          4.6327    0.0265   -0.0428 O.2       1 <0>        -0.5274
     12 C9          2.3836   -4.1891   -0.0417 C.3       1 <0>        -0.0491
     13 S1          1.9516   -4.7981    1.6115 S.3       1 <0>        -0.1953
     14 C10         1.9785   -6.6033    1.4350 C.3       1 <0>        -0.1143
     15 C11         1.6266   -7.2521    2.7753 C.3       1 <0>        -0.1111
     16 C12         1.6493   -8.7746    2.6265 C.3       1 <0>        -0.0431
     17 H1          0.9864   -9.0701    1.8133 H         1 <0>         0.1358
     18 C13         1.1842   -9.4118    3.9105 C.2       1 <0>         0.4885
     19 O2          0.0004   -9.6501    4.0789 O.co2     1 <0>        -0.6333
     20 O3          1.9917   -9.6891    4.7809 O.co2     1 <0>        -0.6657
     21 N3          3.0179   -9.2171    2.3280 N.4       1 <0>        -0.6157
     22 H2         -0.9568    1.8894    0.0258 H         1 <0>         0.1568
     23 H3          1.1856    3.1467    0.0073 H         1 <0>         0.1626
     24 H4          3.2971    1.9550   -0.0193 H         1 <0>         0.1836
     25 H5         -0.9231   -0.5612    0.0075 H         1 <0>         0.1697
     26 H6          4.5350   -2.5429   -0.0538 H         1 <0>         0.1589
     27 H7          1.6467   -4.5423   -0.7631 H         1 <0>         0.1096
     28 H8          3.3703   -4.5600   -0.3191 H         1 <0>         0.1047
     29 H9          1.2501   -6.9058    0.6827 H         1 <0>         0.0962
     30 H10         2.9737   -6.9235    1.1266 H         1 <0>         0.0736
     31 H11         2.3550   -6.9496    3.5277 H         1 <0>         0.0951
     32 H12         0.6314   -6.9319    3.0837 H         1 <0>         0.1175
     33 H13         3.6316   -8.9436    3.0808 H         1 <0>         0.4346
     34 H14         3.0329  -10.2212    2.2299 H         1 <0>         0.4321
     35 H15         3.3294   -8.7905    1.4683 H         1 <0>         0.4116
@<TRIPOS>BOND
     1    1    6 2
     2    1    2 1
     3    1   22 1
     4    2    3 2
     5    2   23 1
     6    3    4 1
     7    3   24 1
     8    4   10 am
     9    4    5 1
    10    5    6 1
    11    5    7 2
    12    6   25 1
    13    7    8 1
    14    8    9 2
    15    8   12 1
    16    9   10 1
    17    9   26 1
    18   10   11 2
    19   12   13 1
    20   12   27 1
    21   12   28 1
    22   13   14 1
    23   14   15 1
    24   14   29 1
    25   14   30 1
    26   15   16 1
    27   15   31 1
    28   15   32 1
    29   16   17 1
    30   16   18 1
    31   16   21 1
    32   18   19 2
    33   18   20 1
    34   21   33 1
    35   21   34 1
    36   21   35 1
@<TRIPOS>MOLECULE
ZINC45583483
   38    39     0     0     0
SMALL
USER_CHARGES

@<TRIPOS>ATOM
      1 C1         -0.0187    1.5258    0.0104 C.3       1 <0>        -0.1588
      2 C2          0.0021   -0.0041    0.0020 C.3       1 <0>        -0.0112
      3 C3          0.7421   -0.5109    1.2415 C.3       1 <0>        -0.1060
      4 C4         -0.0416   -0.1236    2.4973 C.3       1 <0>        -0.1354
      5 S1          0.8358   -0.7245    3.9669 S.3       1 <0>         0.0550
      6 C5         -0.1792   -0.2065    5.3108 C.2       1 <0>         0.2044
      7 N1         -1.3117    0.4571    5.2244 N.2       1 <0>        -0.3408
      8 N2         -1.7954    0.6754    6.3938 N.2       1 <0>        -0.0331
      9 N3         -1.0234    0.1774    7.2981 N.2       1 <0>        -0.0678
     10 N4          0.0566   -0.4217    6.6266 N.pl3     1 <0>        -0.3481
     11 C6          1.1948   -1.1255    7.2228 C.3       1 <0>         0.1424
     12 C7          0.6947   -2.2965    8.0936 C.3       1 <0>        -0.1321
     13 C8          1.6670   -2.3156    9.2991 C.3       1 <0>        -0.1217
     14 C9          1.9098   -0.8094    9.5664 C.3       1 <0>        -0.1233
     15 C10         1.9674   -0.1800    8.1592 C.3       1 <0>        -0.1323
     16 C11         0.7074   -0.4901   -1.2379 C.2       1 <0>         0.4994
     17 O1          1.8687   -0.1786   -1.4402 O.co2     1 <0>        -0.6271
     18 O2          0.1168   -1.1947   -2.0386 O.co2     1 <0>        -0.6681
     19 N5         -1.3761   -0.5125    0.0124 N.4       1 <0>        -0.6145
     20 H1          1.0039    1.9031    0.0027 H         1 <0>         0.1071
     21 H2         -0.5459    1.8868   -0.8726 H         1 <0>         0.0769
     22 H3         -0.5289    1.8773    0.9072 H         1 <0>         0.0695
     23 H4          0.8346   -1.5958    1.1912 H         1 <0>         0.0962
     24 H5          1.7350   -0.0630    1.2804 H         1 <0>         0.1240
     25 H6         -0.1341    0.9613    2.5476 H         1 <0>         0.1159
     26 H7         -1.0345   -0.5716    2.4584 H         1 <0>         0.0908
     27 H8          1.8554   -1.4972    6.4395 H         1 <0>         0.1187
     28 H9         -0.3259   -2.1133    8.4296 H         1 <0>         0.0850
     29 H10         0.7530   -3.2345    7.5415 H         1 <0>         0.0824
     30 H11         1.2022   -2.7912   10.1628 H         1 <0>         0.0797
     31 H12         2.5988   -2.8164    9.0360 H         1 <0>         0.0768
     32 H13         1.0854   -0.3861   10.1402 H         1 <0>         0.0743
     33 H14         2.8549   -0.6622   10.0891 H         1 <0>         0.0774
     34 H15         3.0032   -0.0936    7.8309 H         1 <0>         0.0876
     35 H16         1.4955    0.8025    8.1700 H         1 <0>         0.0784
     36 H17        -1.8641   -0.1783   -0.8050 H         1 <0>         0.4348
     37 H18        -1.3624   -1.5214    0.0069 H         1 <0>         0.4324
     38 H19        -1.8484   -0.1871    0.8426 H         1 <0>         0.4115
@<TRIPOS>BOND
     1    1    2 1
     2    1   20 1
     3    1   21 1
     4    1   22 1
     5    2    3 1
     6    2   16 1
     7    2   19 1
     8    3    4 1
     9    3   23 1
    10    3   24 1
    11    4    5 1
    12    4   25 1
    13    4   26 1
    14    5    6 1
    15    6   10 1
    16    6    7 2
    17    7    8 1
    18    8    9 2
    19    9   10 1
    20   10   11 1
    21   11   15 1
    22   11   12 1
    23   11   27 1
    24   12   13 1
    25   12   28 1
    26   12   29 1
    27   13   14 1
    28   13   30 1
    29   13   31 1
    30   14   15 1
    31   14   32 1
    32   14   33 1
    33   15   34 1
    34   15   35 1
    35   16   17 2
    36   16   18 1
    37   19   36 1
    38   19   37 1
    39   19   38 1
@<TRIPOS>MOLECULE
ZINC51578010
   32    33     0     0     0
SMALL
USER_CHARGES

@<TRIPOS>ATOM
      1 C1         -0.0184    1.5028    0.0103 C.3       1 <0>        -0.1077
      2 C2          0.0021   -0.0041    0.0020 C.ar      1 <0>         0.1317
      3 C3          0.0055   -0.6806   -1.2034 C.ar      1 <0>        -0.1650
      4 C4          0.0244   -2.0667   -1.1999 C.ar      1 <0>        -0.0712
      5 C5          0.0391   -2.7236    0.0213 C.ar      1 <0>        -0.1632
      6 C6          0.0345   -1.9800    1.1859 C.ar      1 <0>         0.1172
      7 N1          0.0219   -0.6618    1.1446 N.ar      1 <0>        -0.4673
      8 C7          0.0504   -2.6832    2.5186 C.3       1 <0>         0.1696
      9 N2          1.4302   -2.7860    3.0002 N.pl3     1 <0>        -1.1101
     10 S1          1.7283   -3.1688    4.5835 S.o2      1 <0>         2.7161
     11 O1          3.1408   -3.2175    4.7306 O.2       1 <0>        -0.9524
     12 O2          0.9096   -2.3134    5.3692 O.2       1 <0>        -0.9476
     13 C8          1.1381   -4.8086    4.8430 C.ar      1 <0>        -0.8566
     14 C9         -0.1682   -5.0353    5.2473 C.ar      1 <0>         0.2947
     15 N3         -0.5795   -6.2787    5.4332 N.ar      1 <0>        -0.5761
     16 C10         0.2414   -7.3001    5.2373 C.ar      1 <0>         0.6022
     17 N4          1.4957   -7.1177    4.8513 N.ar      1 <0>        -0.5770
     18 C11         1.9683   -5.9001    4.6417 C.ar      1 <0>         0.2985
     19 N5         -0.2222   -8.5881    5.4412 N.pl3     1 <0>        -0.8039
     20 H1          1.0042    1.8801    0.0026 H         1 <0>         0.0807
     21 H2         -0.5455    1.8639   -0.8728 H         1 <0>         0.0766
     22 H3         -0.5286    1.8543    0.9071 H         1 <0>         0.0802
     23 H4         -0.0066   -0.1362   -2.1360 H         1 <0>         0.1377
     24 H5          0.0272   -2.6219   -2.1263 H         1 <0>         0.1381
     25 H6          0.0536   -3.8027    0.0616 H         1 <0>         0.1368
     26 H7         -0.5434   -2.1164    3.2357 H         1 <0>         0.1022
     27 H8         -0.3709   -3.6823    2.4073 H         1 <0>         0.0808
     28 H9         -0.8419   -4.2068    5.4089 H         1 <0>         0.1862
     29 H10         2.9902   -5.7580    4.3224 H         1 <0>         0.1859
     30 H11        -1.1384   -8.7347    5.7241 H         1 <0>         0.4208
     31 H12         0.3691   -9.3442    5.3011 H         1 <0>         0.4207
     32 H13         2.1692   -2.6297    2.3916 H         1 <0>         0.4213
@<TRIPOS>BOND
     1    1    2 1
     2    1   20 1
     3    1   21 1
     4    1   22 1
     5    2    7 ar
     6    2    3 ar
     7    3    4 ar
     8    3   23 1
     9    4    5 ar
    10    4   24 1
    11    5    6 ar
    12    5   25 1
    13    6    7 ar
    14    6    8 1
    15    8    9 1
    16    8   26 1
    17    8   27 1
    18    9   10 1
    19    9   32 1
    20   10   11 2
    21   10   12 2
    22   10   13 1
    23   13   18 ar
    24   13   14 ar
    25   14   15 ar
    26   14   28 1
    27   15   16 ar
    28   16   17 ar
    29   16   19 1
    30   17   18 ar
    31   18   29 1
    32   19   30 1
    33   19   31 1
@<TRIPOS>MOLECULE
ZINC66636749
   35    36     0     0     0
SMALL
USER_CHARGES

@<TRIPOS>ATOM
      1 C1         -0.0187    1.5258    0.0104 C.3       1 <0>        -0.1725
      2 C2          0.0021   -0.0041    0.0020 C.3       1 <0>         0.1039
      3 N1         -1.3723   -0.5112    0.0124 N.pl3     1 <0>        -0.4855
      4 C3         -2.1177   -0.7902    1.1314 C.2       1 <0>         0.2675
      5 N2         -3.2818   -1.2183    0.7620 N.2       1 <0>        -0.2738
      6 N3         -3.3189   -1.2269   -0.6392 N.pl3     1 <0>        -0.4691
      7 C4         -2.1233   -0.7780   -1.0749 C.2       1 <0>         0.4724
      8 S1         -1.6463   -0.5867   -2.7080 S.2       1 <0>        -0.5594
      9 C5         -1.6556   -0.6254    2.5563 C.3       1 <0>         0.2004
     10 N4         -2.7308   -1.0252    3.4677 N.am      1 <0>        -0.7215
     11 C6         -2.5429   -0.9611    4.8007 C.2       1 <0>         0.6106
     12 O1         -1.4810   -0.5714    5.2470 O.2       1 <0>        -0.5232
     13 C7         -3.6248   -1.3634    5.7178 C.2       1 <0>        -0.2937
     14 C8         -3.8388   -2.6282    6.2279 C.2       1 <0>         0.1409
     15 N5         -4.9228   -2.5650    7.0174 N.pl3     1 <0>        -0.4587
     16 H1         -5.3087   -3.3058    7.5106 H         1 <0>         0.4445
     17 N6         -5.4018   -1.2502    7.0094 N.2       1 <0>        -0.2890
     18 C9         -4.6333   -0.5253    6.2441 C.2       1 <0>         0.1210
     19 C10        -4.7951    0.9471    5.9666 C.3       1 <0>        -0.0818
     20 C11        -3.0086   -3.8546    5.9491 C.3       1 <0>        -0.1023
     21 H2          1.0039    1.9031    0.0027 H         1 <0>         0.0899
     22 H3         -0.5459    1.8868   -0.8726 H         1 <0>         0.0739
     23 H4         -0.5289    1.8773    0.9072 H         1 <0>         0.0616
     24 H5          0.5123   -0.3556   -0.8948 H         1 <0>         0.1206
     25 H6          0.5293   -0.3651    0.8851 H         1 <0>         0.1058
     26 H7         -4.0667   -1.5011   -1.1929 H         1 <0>         0.4709
     27 H8         -0.7808   -1.2521    2.7294 H         1 <0>         0.1119
     28 H9         -1.3964    0.4180    2.7358 H         1 <0>         0.1126
     29 H10        -3.5778   -1.3360    3.1116 H         1 <0>         0.4156
     30 H11        -5.4350    1.0844    5.0950 H         1 <0>         0.0832
     31 H12        -5.2494    1.4318    6.8308 H         1 <0>         0.0821
     32 H13        -3.8181    1.3899    5.7735 H         1 <0>         0.0799
     33 H14        -2.2089   -3.9273    6.6861 H         1 <0>         0.0924
     34 H15        -3.6394   -4.7416    6.0086 H         1 <0>         0.0815
     35 H16        -2.5771   -3.7820    4.9507 H         1 <0>         0.0874
@<TRIPOS>BOND
     1    1    2 1
     2    1   21 1
     3    1   22 1
     4    1   23 1
     5    2   24 1
     6    2   25 1
     7    2    3 1
     8    3    7 1
     9    3    4 1
    10    4    9 1
    11    4    5 2
    12    5    6 1
    13    6    7 1
    14    6   26 1
    15    7    8 2
    16    9   10 1
    17    9   27 1
    18    9   28 1
    19   10   11 am
    20   10   29 1
    21   11   12 2
    22   11   13 1
    23   13   18 1
    24   13   14 2
    25   14   15 1
    26   14   20 1
    27   15   16 1
    28   15   17 1
    29   17   18 2
    30   18   19 1
    31   19   30 1
    32   19   31 1
    33   19   32 1
    34   20   33 1
    35   20   34 1
    36   20   35 1
@<TRIPOS>MOLECULE
ZINC35406701
   42    42     0     0     0
SMALL
USER_CHARGES

@<TRIPOS>ATOM
      1 C1         -0.0187    1.5258    0.0104 C.3       1 <0>        -0.1663
      2 C2          0.0021   -0.0041    0.0020 C.3       1 <0>        -0.0946
      3 C3         -1.4333   -0.5336    0.0129 C.3       1 <0>        -0.1490
      4 C4          0.7182   -0.4975   -1.2568 C.3       1 <0>        -0.0525
      5 H1          0.1910   -0.1364   -2.1398 H         1 <0>         0.1321
      6 C5          0.7386   -2.0043   -1.2651 C.2       1 <0>         0.4937
      7 O1         -0.2945   -2.6270   -1.4419 O.co2     1 <0>        -0.6248
      8 O2          1.7884   -2.6007   -1.0949 O.co2     1 <0>        -0.6727
      9 N1          2.0964    0.0110   -1.2672 N.4       1 <0>        -0.4695
     10 C6          2.7463   -0.3619   -2.5307 C.3       1 <0>        -0.0308
     11 C7          4.1601    0.1597   -2.5414 C.2       1 <0>         0.5128
     12 O3          4.5845    0.7809   -1.5902 O.2       1 <0>        -0.5283
     13 N2          4.9530   -0.0641   -3.6081 N.am      1 <0>        -0.7042
     14 C8          6.3274    0.4429   -3.6185 C.3       1 <0>         0.1820
     15 C9          6.2941    1.9526   -3.3846 C.3       1 <0>        -0.1413
     16 C10         7.5214    2.6292   -4.0565 C.3       1 <0>        -0.5629
     17 S1          7.5972    1.6472   -5.6187 S.o2      1 <0>         2.3695
     18 O4          6.6438    2.1595   -6.5395 O.2       1 <0>        -0.9243
     19 O5          8.9540    1.5067   -6.0170 O.2       1 <0>        -0.9268
     20 C11         6.9916    0.0421   -4.9502 C.3       1 <0>        -0.5926
     21 C12         7.0982   -0.2108   -2.4699 C.3       1 <0>        -0.1735
     22 H2          1.0039    1.9031    0.0027 H         1 <0>         0.0468
     23 H3         -0.5459    1.8868   -0.8726 H         1 <0>         0.0676
     24 H4         -0.5289    1.8773    0.9072 H         1 <0>         0.0783
     25 H5          0.5293   -0.3651    0.8851 H         1 <0>         0.0865
     26 H6         -1.9605   -0.1726   -0.8702 H         1 <0>         0.0587
     27 H7         -1.4185   -1.6235    0.0069 H         1 <0>         0.0932
     28 H8         -1.9435   -0.1821    0.9097 H         1 <0>         0.0601
     29 H9          2.0847    1.0160   -1.1788 H         1 <0>         0.4119
     30 H10         2.7589   -1.4477   -2.6262 H         1 <0>         0.1797
     31 H11         2.1934    0.0698   -3.3650 H         1 <0>         0.1501
     32 H12         4.6135   -0.5610   -4.3689 H         1 <0>         0.4142
     33 H13         5.3782    2.3632   -3.8097 H         1 <0>         0.0912
     34 H14         6.3139    2.1520   -2.3132 H         1 <0>         0.1202
     35 H15         7.3326    3.6836   -4.2587 H         1 <0>         0.1470
     36 H16         8.4241    2.4971   -3.4599 H         1 <0>         0.1439
     37 H17         7.8234   -0.6402   -4.7752 H         1 <0>         0.1572
     38 H18         6.2615   -0.4047   -5.6250 H         1 <0>         0.1492
     39 H19         7.1117   -1.2917   -2.6101 H         1 <0>         0.0712
     40 H20         8.1207    0.1667   -2.4572 H         1 <0>         0.0768
     41 H21         6.6115    0.0268   -1.5240 H         1 <0>         0.0874
     42 H22         2.6082   -0.3887   -0.4949 H         1 <0>         0.4328
@<TRIPOS>BOND
     1    1    2 1
     2    1   22 1
     3    1   23 1
     4    1   24 1
     5    2    3 1
     6    2    4 1
     7    2   25 1
     8    3   26 1
     9    3   27 1
    10    3   28 1
    11    4    5 1
    12    4    6 1
    13    4    9 1
    14    6    7 2
    15    6    8 1
    16    9   10 1
    17    9   29 1
    18    9   42 1
    19   10   11 1
    20   10   30 1
    21   10   31 1
    22   11   12 2
    23   11   13 am
    24   13   14 1
    25   13   32 1
    26   14   20 1
    27   14   15 1
    28   14   21 1
    29   15   16 1
    30   15   33 1
    31   15   34 1
    32   16   17 1
    33   16   35 1
    34   16   36 1
    35   17   18 2
    36   17   19 2
    37   17   20 1
    38   20   37 1
    39   20   38 1
    40   21   39 1
    41   21   40 1
    42   21   41 1
@<TRIPOS>MOLECULE
ZINC40860801
   41    42     0     0     0
SMALL
USER_CHARGES

@<TRIPOS>ATOM
      1 C1         -0.0187    1.5262    0.0104 C.3       1 <0>        -0.1284
      2 C2          1.4200    2.0524   -0.0005 C.3       1 <0>         0.1199
      3 N1          2.1298    1.4649   -1.1449 N.pl3     1 <0>        -1.0058
      4 C3          2.1347    0.0037   -1.2986 C.3       1 <0>         0.1214
      5 C4          0.6880   -0.4996   -1.2731 C.3       1 <0>        -0.1327
      6 C5          0.0021   -0.0041    0.0020 C.3       1 <0>        -0.0705
      7 C6         -1.4327   -0.5336    0.0478 C.3       1 <0>        -0.1410
      8 C7         -1.4102   -2.0359    0.1633 C.2       1 <0>         0.5155
      9 O1         -0.3510   -2.6252    0.2050 O.2       1 <0>        -0.5389
     10 N2         -2.5672   -2.7248    0.2204 N.am      1 <0>        -0.8590
     11 S1          2.9090    2.4312   -2.2409 S.o2      1 <0>         2.7811
     12 O2          2.9920    1.6890   -3.4499 O.2       1 <0>        -0.9733
     13 O3          2.2875    3.7072   -2.1714 O.2       1 <0>        -0.9746
     14 N3          4.4617    2.6309   -1.7007 N.pl3     1 <0>        -1.0091
     15 C8          4.8112    3.7412   -0.8017 C.3       1 <0>         0.1222
     16 C9          6.0200    4.4793   -1.3868 C.3       1 <0>         0.0448
     17 N4          7.1024    3.5182   -1.6369 N.3       1 <0>        -0.6882
     18 C10         6.7082    2.5210   -2.6410 C.3       1 <0>         0.0450
     19 C11         5.5264    1.6992   -2.1024 C.3       1 <0>         0.1219
     20 H1         -0.5280    1.8782    0.9075 H         1 <0>         0.0781
     21 H2         -0.5450    1.8877   -0.8729 H         1 <0>         0.0700
     22 H3          1.4111    3.1384   -0.0944 H         1 <0>         0.0915
     23 H4          1.9202    1.7677    0.9251 H         1 <0>         0.0705
     24 H5          2.5974   -0.2622   -2.2490 H         1 <0>         0.0900
     25 H6          2.6932   -0.4481   -0.4789 H         1 <0>         0.0710
     26 H7          0.1550   -0.1190   -2.1444 H         1 <0>         0.0625
     27 H8          0.6816   -1.5895   -1.2897 H         1 <0>         0.0948
     28 H9          0.5499   -0.3646    0.8726 H         1 <0>         0.0828
     29 H10        -1.9488   -0.1105    0.9096 H         1 <0>         0.0967
     30 H11        -1.9549   -0.2471   -0.8651 H         1 <0>         0.0955
     31 H12        -3.4144   -2.2535    0.1870 H         1 <0>         0.4017
     32 H13        -2.5528   -3.6918    0.2948 H         1 <0>         0.4016
     33 H14         3.9675    4.4267   -0.7212 H         1 <0>         0.0937
     34 H15         5.0634    3.3491    0.1836 H         1 <0>         0.0766
     35 H16         5.7352    4.9583   -2.3236 H         1 <0>         0.0374
     36 H17         6.3613    5.2358   -0.6802 H         1 <0>         0.0889
     37 H18         7.9502    3.9918   -1.9110 H         1 <0>         0.3481
     38 H19         6.4139    3.0273   -3.5603 H         1 <0>         0.0379
     39 H20         7.5487    1.8573   -2.8439 H         1 <0>         0.0888
     40 H21         5.8460    1.1145   -1.2398 H         1 <0>         0.0772
     41 H22         5.1558    1.0338   -2.8822 H         1 <0>         0.0942
@<TRIPOS>BOND
     1    1    6 1
     2    1    2 1
     3    1   20 1
     4    1   21 1
     5    2    3 1
     6    2   22 1
     7    2   23 1
     8    3    4 1
     9    3   11 1
    10    4    5 1
    11    4   24 1
    12    4   25 1
    13    5    6 1
    14    5   26 1
    15    5   27 1
    16    6    7 1
    17    6   28 1
    18    7    8 1
    19    7   29 1
    20    7   30 1
    21    8    9 2
    22    8   10 am
    23   10   31 1
    24   10   32 1
    25   11   12 2
    26   11   13 2
    27   11   14 1
    28   14   19 1
    29   14   15 1
    30   15   16 1
    31   15   33 1
    32   15   34 1
    33   16   17 1
    34   16   35 1
    35   16   36 1
    36   17   18 1
    37   17   37 1
    38   18   19 1
    39   18   38 1
    40   18   39 1
    41   19   40 1
    42   19   41 1
@<TRIPOS>MOLECULE
ZINC45111936
   47    47     0     0     0
SMALL
USER_CHARGES

@<TRIPOS>ATOM
      1 C1         -1.1346    2.1561   -0.2613 C.3       1 <0>        -0.1474
      2 C2         -0.9336    0.6400   -0.3070 C.3       1 <0>        -0.0885
      3 H1         -1.9006    0.1429   -0.2312 H         1 <0>         0.0583
      4 C3         -0.2638    0.2540   -1.6273 C.3       1 <0>        -0.1131
      5 C4         -0.0628   -1.2621   -1.6731 C.3       1 <0>        -0.1111
      6 C5          0.8258   -1.6942   -0.5049 C.3       1 <0>        -0.1150
      7 C6          0.1560   -1.3081    0.8154 C.3       1 <0>         0.1278
      8 C7         -0.0450    0.2079    0.8611 C.3       1 <0>        -0.1005
      9 C8          1.0313   -1.7337    1.9660 C.2       1 <0>         0.5020
     10 O1          2.1621   -1.2896    2.0685 O.co2     1 <0>        -0.6907
     11 O2          0.6086   -2.5222    2.7943 O.co2     1 <0>        -0.6845
     12 N1         -1.1437   -1.9763    0.9173 N.am      1 <0>        -0.7060
     13 C9         -1.2128   -3.3222    0.8985 C.2       1 <0>         0.7120
     14 O3         -0.1964   -3.9818    0.7969 O.2       1 <0>        -0.5489
     15 N2         -2.4085   -3.9370    0.9922 N.am      1 <0>        -0.7765
     16 C10        -2.4836   -5.3999    0.9718 C.3       1 <0>         0.1190
     17 C11        -3.9245   -5.8404    1.2379 C.3       1 <0>         0.0150
     18 H2         -4.5673   -5.4865    0.4319 H         1 <0>         0.1410
     19 C12        -3.9865   -7.3676    1.3066 C.3       1 <0>        -0.1800
     20 N3         -4.3820   -5.2738    2.5137 N.4       1 <0>        -0.3853
     21 C13        -5.7958   -5.6142    2.7217 C.3       1 <0>        -0.0491
     22 C14        -3.5784   -5.8277    3.6116 C.3       1 <0>        -0.0591
     23 H3         -0.1676    2.6533   -0.3371 H         1 <0>         0.0570
     24 H4         -1.7677    2.4639   -1.0935 H         1 <0>         0.0506
     25 H5         -1.6118    2.4311    0.6793 H         1 <0>         0.0521
     26 H6         -0.8969    0.5618   -2.4595 H         1 <0>         0.0544
     27 H7          0.7033    0.7512   -1.7032 H         1 <0>         0.0638
     28 H8         -1.0298   -1.7592   -1.5972 H         1 <0>         0.0496
     29 H9          0.4144   -1.5371   -2.6137 H         1 <0>         0.0542
     30 H10         0.9690   -2.7742   -0.5375 H         1 <0>         0.0756
     31 H11         1.7929   -1.1970   -0.5808 H         1 <0>         0.0719
     32 H12         0.9221    0.7051    0.7853 H         1 <0>         0.0845
     33 H13        -0.5221    0.4830    1.8017 H         1 <0>         0.0582
     34 H14        -1.9545   -1.4502    0.9983 H         1 <0>         0.3789
     35 H15        -3.2194   -3.4108    1.0733 H         1 <0>         0.3794
     36 H16        -2.1661   -5.7664   -0.0044 H         1 <0>         0.1029
     37 H17        -1.8306   -5.8081    1.7431 H         1 <0>         0.0947
     38 H18        -5.0130   -7.6814    1.4962 H         1 <0>         0.0843
     39 H19        -3.6470   -7.7879    0.3599 H         1 <0>         0.1078
     40 H20        -3.3436   -7.7214    2.1126 H         1 <0>         0.0873
     41 H21        -6.1635   -5.1091    3.6148 H         1 <0>         0.1233
     42 H22        -6.3776   -5.2937    1.8575 H         1 <0>         0.1211
     43 H23        -5.8953   -6.6924    2.8471 H         1 <0>         0.1228
     44 H24        -2.5293   -5.5751    3.4573 H         1 <0>         0.1326
     45 H25        -3.9178   -5.4073    4.5583 H         1 <0>         0.1244
     46 H26        -3.6917   -6.9115    3.6339 H         1 <0>         0.1250
     47 H27        -4.2771   -4.2705    2.4931 H         1 <0>         0.4243
@<TRIPOS>BOND
     1    1    2 1
     2    1   23 1
     3    1   24 1
     4    1   25 1
     5    2    3 1
     6    2    8 1
     7    2    4 1
     8    4    5 1
     9    4   26 1
    10    4   27 1
    11    5    6 1
    12    5   28 1
    13    5   29 1
    14    6    7 1
    15    6   30 1
    16    6   31 1
    17    7    8 1
    18    7    9 1
    19    7   12 1
    20    8   32 1
    21    8   33 1
    22    9   10 2
    23    9   11 1
    24   12   13 am
    25   12   34 1
    26   13   14 2
    27   13   15 am
    28   15   16 1
    29   15   35 1
    30   16   17 1
    31   16   36 1
    32   16   37 1
    33   17   18 1
    34   17   19 1
    35   17   20 1
    36   19   38 1
    37   19   39 1
    38   19   40 1
    39   20   21 1
    40   20   22 1
    41   20   47 1
    42   21   41 1
    43   21   42 1
    44   21   43 1
    45   22   44 1
    46   22   45 1
    47   22   46 1
@<TRIPOS>MOLECULE
ZINC44869543
   40    41     0     0     0
SMALL
USER_CHARGES

@<TRIPOS>ATOM
      1 C1         -0.2491    1.4937    0.1318 C.3       1 <0>        -0.1757
      2 C2         -0.1993   -0.0355    0.1223 C.3       1 <0>         0.0922
      3 N1          0.6140   -0.5045    1.2470 N.am      1 <0>        -0.5421
      4 C3          1.9578   -0.6776    1.0748 C.2       1 <0>         0.5577
      5 C4          2.7298   -1.1275    2.1599 C.2       1 <0>        -0.4572
      6 C5          2.0414   -1.3889    3.4305 C.2       1 <0>         0.5809
      7 O1          2.6598   -1.7796    4.4033 O.2       1 <0>        -0.5067
      8 N2          0.7093   -1.1866    3.4971 N.am      1 <0>        -0.6605
      9 H1          0.2406   -1.3549    4.3295 H         1 <0>         0.4350
     10 C6          0.0245   -0.7503    2.4274 C.2       1 <0>         0.7166
     11 O2         -1.1740   -0.5763    2.5307 O.2       1 <0>        -0.5256
     12 C7          4.1217   -1.3222    2.0322 C.2       1 <0>         0.4435
     13 O3          4.6884   -1.0006    1.0072 O.2       1 <0>        -0.4928
     14 C8          4.9049   -1.9292    3.1677 C.3       1 <0>         0.0278
     15 N3          6.3212   -2.0250    2.7895 N.3       1 <0>        -0.5249
     16 C9          6.5084   -2.9778    1.6872 C.3       1 <0>         0.0164
     17 C10         7.1514   -2.3879    3.9457 C.3       1 <0>         0.1099
     18 C11         8.6071   -2.2381    3.5857 C.2       1 <0>        -0.1188
     19 C12         9.3076   -3.2978    3.0408 C.2       1 <0>        -0.1497
     20 C13        10.6158   -3.1298    2.7283 C.2       1 <0>        -0.1755
     21 S1         10.8948   -1.4327    3.2070 S.3       1 <0>         0.0263
     22 C14         9.2476   -1.0604    3.7861 C.2       1 <0>        -0.1466
     23 N4          2.5396   -0.4190   -0.1276 N.pl3     1 <0>        -0.7917
     24 H2          0.7619    1.8907    0.0396 H         1 <0>         0.0627
     25 H3         -0.8542    1.8427   -0.7050 H         1 <0>         0.0869
     26 H4         -0.6904    1.8371    1.0674 H         1 <0>         0.0721
     27 H5         -1.2102   -0.4325    0.2145 H         1 <0>         0.1174
     28 H6          0.2420   -0.3789   -0.8133 H         1 <0>         0.0942
     29 H7          4.8070   -1.3011    4.0531 H         1 <0>         0.1152
     30 H8          4.5185   -2.9251    3.3841 H         1 <0>         0.0699
     31 H9          5.9367   -2.6471    0.8200 H         1 <0>         0.0817
     32 H10         7.5657   -3.0294    1.4271 H         1 <0>         0.0707
     33 H11         6.1617   -3.9639    1.9964 H         1 <0>         0.0184
     34 H12         6.9149   -1.7315    4.7832 H         1 <0>         0.0842
     35 H13         6.9512   -3.4218    4.2266 H         1 <0>         0.0429
     36 H14         8.8200   -4.2457    2.8671 H         1 <0>         0.1298
     37 H15        11.3095   -3.8387    2.3009 H         1 <0>         0.1839
     38 H16         8.8618   -0.1368    4.1918 H         1 <0>         0.1850
     39 H17         1.9902   -0.1853   -0.8921 H         1 <0>         0.4055
     40 H18         3.5039   -0.4684   -0.2204 H         1 <0>         0.4410
@<TRIPOS>BOND
     1    1    2 1
     2    1   24 1
     3    1   25 1
     4    1   26 1
     5    2    3 1
     6    2   27 1
     7    2   28 1
     8    3   10 am
     9    3    4 1
    10    4    5 2
    11    4   23 1
    12    5    6 1
    13    5   12 1
    14    6    7 2
    15    6    8 am
    16    8    9 1
    17    8   10 am
    18   10   11 2
    19   12   13 2
    20   12   14 1
    21   14   15 1
    22   14   29 1
    23   14   30 1
    24   15   16 1
    25   15   17 1
    26   16   31 1
    27   16   32 1
    28   16   33 1
    29   17   18 1
    30   17   34 1
    31   17   35 1
    32   18   22 2
    33   18   19 1
    34   19   20 2
    35   19   36 1
    36   20   21 1
    37   20   37 1
    38   21   22 1
    39   22   38 1
    40   23   39 1
    41   23   40 1
@<TRIPOS>MOLECULE
ZINC65268838
   39    39     0     0     0
SMALL
USER_CHARGES

@<TRIPOS>ATOM
      1 C1         -0.0187    1.5258    0.0104 C.3       1 <0>        -0.1389
      2 C2          0.0021   -0.0041    0.0020 C.3       1 <0>        -0.5931
      3 C3          0.7182   -0.4975   -1.2568 C.3       1 <0>        -0.1447
      4 S1          0.8794   -0.6050    1.4716 S.o2      1 <0>         2.6107
      5 O1          0.7544   -2.0168    1.5731 O.2       1 <0>        -0.9536
      6 O2          2.1525    0.0185    1.5707 O.2       1 <0>        -0.9533
      7 N1          0.0171   -0.0111    2.7546 N.pl3     1 <0>        -1.1173
      8 C4         -1.3580   -0.4613    2.9842 C.3       1 <0>         0.1179
      9 C5         -1.7926   -0.0721    4.3986 C.3       1 <0>        -0.1087
     10 C6         -1.8451    1.4529    4.5154 C.3       1 <0>        -0.1154
     11 C7         -2.2479    1.8436    5.9392 C.3       1 <0>        -0.1338
     12 C8         -3.6428    1.2873    6.2418 C.3       1 <0>         0.1148
     13 N2         -3.6389   -0.1605    5.9916 N.pl3     1 <0>        -1.0018
     14 C9         -3.1823   -0.6502    4.6837 C.3       1 <0>         0.1208
     15 S2         -4.1393   -1.2203    7.1615 S.o2      1 <0>         2.7937
     16 O3         -3.5200   -2.4662    6.8726 O.2       1 <0>        -0.9780
     17 O4         -3.9731   -0.5578    8.4076 O.2       1 <0>        -0.9792
     18 N3         -5.7675   -1.4424    6.9571 N.pl3     1 <0>        -1.2631
     19 H1          1.0039    1.9031    0.0027 H         1 <0>         0.0749
     20 H2         -0.5459    1.8868   -0.8726 H         1 <0>         0.0771
     21 H3         -0.5289    1.8773    0.9072 H         1 <0>         0.0700
     22 H4         -1.0205   -0.3814    0.0098 H         1 <0>         0.1343
     23 H5          1.7408   -0.1202   -1.2645 H         1 <0>         0.0730
     24 H6          0.7330   -1.5874   -1.2628 H         1 <0>         0.0728
     25 H7          0.1910   -0.1364   -2.1398 H         1 <0>         0.0830
     26 H8          0.4224    0.6348    3.3541 H         1 <0>         0.4191
     27 H9         -2.0205    0.0097    2.2580 H         1 <0>         0.0695
     28 H10        -1.4090   -1.5444    2.8735 H         1 <0>         0.0866
     29 H11        -1.0786   -0.4684    5.1206 H         1 <0>         0.0907
     30 H12        -0.8632    1.8685    4.2889 H         1 <0>         0.0697
     31 H13        -2.5771    1.8462    3.8101 H         1 <0>         0.0701
     32 H14        -1.5297    1.4297    6.6470 H         1 <0>         0.0713
     33 H15        -2.2623    2.9299    6.0281 H         1 <0>         0.0802
     34 H16        -3.8933    1.4770    7.2855 H         1 <0>         0.0963
     35 H17        -4.3762    1.7680    5.5946 H         1 <0>         0.0726
     36 H18        -3.8783   -0.3274    3.9094 H         1 <0>         0.0768
     37 H19        -3.1291   -1.7388    4.6994 H         1 <0>         0.1006
     38 H20        -6.2344   -0.9796    6.2438 H         1 <0>         0.4141
     39 H21        -6.2544   -2.0354    7.5505 H         1 <0>         0.4204
@<TRIPOS>BOND
     1    1    2 1
     2    1   19 1
     3    1   20 1
     4    1   21 1
     5    2    3 1
     6    2    4 1
     7    2   22 1
     8    3   23 1
     9    3   24 1
    10    3   25 1
    11    4    5 2
    12    4    6 2
    13    4    7 1
    14    7    8 1
    15    7   26 1
    16    8    9 1
    17    8   27 1
    18    8   28 1
    19    9   14 1
    20    9   10 1
    21    9   29 1
    22   10   11 1
    23   10   30 1
    24   10   31 1
    25   11   12 1
    26   11   32 1
    27   11   33 1
    28   12   13 1
    29   12   34 1
    30   12   35 1
    31   13   14 1
    32   13   15 1
    33   14   36 1
    34   14   37 1
    35   15   16 2
    36   15   17 2
    37   15   18 1
    38   18   38 1
    39   18   39 1
@<TRIPOS>MOLECULE
ZINC32497931
   36    38     0     0     0
SMALL
USER_CHARGES
N-[[1-(2-amino-2-oxo-ethyl)benzimidazol-2-yl]methyl]furan-2-carboxamide
@<TRIPOS>ATOM
      1 C1         -0.4676   -5.1001   -2.8909 C.ar      1 <0>        -0.1280
      2 C2         -0.7297   -3.8221   -3.3641 C.ar      1 <0>        -0.0938
      3 C3         -0.9262   -2.7783   -2.4853 C.ar      1 <0>        -0.1123
      4 C4         -0.8611   -3.0092   -1.1178 C.ar      1 <0>         0.0643
      5 C5         -0.5924   -4.3027   -0.6393 C.ar      1 <0>         0.0450
      6 C6         -0.3918   -5.3443   -1.5490 C.ar      1 <0>        -0.0575
      7 N1         -0.5958   -4.2313    0.7167 N.2       1 <0>        -0.4639
      8 C7         -0.8374   -3.0084    1.0896 C.2       1 <0>         0.2699
      9 N2         -1.0054   -2.2118   -0.0002 N.pl3     1 <0>        -0.4674
     10 C8         -1.2926   -0.7753    0.0102 C.3       1 <0>         0.0845
     11 C9          0.0021   -0.0041    0.0020 C.2       1 <0>         0.4972
     12 O1          1.0605   -0.5961   -0.0113 O.2       1 <0>        -0.5266
     13 N3         -0.0162    1.3436    0.0094 N.am      1 <0>        -0.8726
     14 C10        -0.9195   -2.5425    2.5204 C.3       1 <0>         0.2038
     15 N4         -2.3004   -2.6628    2.9947 N.am      1 <0>        -0.7299
     16 C11        -2.6141   -2.3014    4.2546 C.2       1 <0>         0.6102
     17 O2         -1.7503   -1.8753    4.9984 O.2       1 <0>        -0.5171
     18 C12        -3.9965   -2.4219    4.7294 C.2       1 <0>        -0.0836
     19 C13        -4.4485   -2.0934    5.9752 C.2       1 <0>        -0.1138
     20 C14        -5.8251   -2.3671    5.9903 C.2       1 <0>        -0.2247
     21 C15        -6.1490   -2.8446    4.7684 C.2       1 <0>        -0.0014
     22 O3         -5.0456   -2.8711    4.0097 O.3       1 <0>        -0.1662
     23 H1         -0.3157   -5.9085   -3.5907 H         1 <0>         0.1320
     24 H2         -0.7796   -3.6440   -4.4281 H         1 <0>         0.1319
     25 H3         -1.1301   -1.7857   -2.8588 H         1 <0>         0.1196
     26 H4         -0.1888   -6.3431   -1.1915 H         1 <0>         0.1316
     27 H5         -1.8815   -0.5127   -0.8810 H         1 <0>         0.1244
     28 H6         -1.8644   -0.5222    0.9152 H         1 <0>         0.1244
     29 H7          0.9288    1.9065    0.0034 H         1 <0>         0.4309
     30 H8         -0.9762    1.8806    0.0214 H         1 <0>         0.4231
     31 H9         -0.2614   -3.1630    3.1464 H         1 <0>         0.1113
     32 H10        -0.6006   -1.4916    2.5827 H         1 <0>         0.0891
     33 H11        -3.0812   -3.0481    2.3225 H         1 <0>         0.4329
     34 H12        -3.8606   -1.6996    6.7912 H         1 <0>         0.1616
     35 H13        -6.4988   -2.2231    6.8220 H         1 <0>         0.1589
     36 H14        -7.1358   -3.1510    4.4541 H         1 <0>         0.2122
@<TRIPOS>BOND
     1    1    6 ar
     2    1    2 ar
     3    1   23 1
     4    2    3 ar
     5    2   24 1
     6    3    4 ar
     7    3   25 1
     8    4    9 1
     9    4    5 ar
    10    5    6 ar
    11    5    7 1
    12    6   26 1
    13    7    8 2
    14    8    9 1
    15    8   14 1
    16    9   10 1
    17   10   11 1
    18   10   27 1
    19   10   28 1
    20   11   12 2
    21   11   13 am
    22   13   29 1
    23   13   30 1
    24   14   15 1
    25   14   31 1
    26   14   32 1
    27   15   16 am
    28   15   33 1
    29   16   17 2
    30   16   18 1
    31   18   22 1
    32   18   19 2
    33   19   20 1
    34   19   34 1
    35   20   21 2
    36   20   35 1
    37   21   22 1
    38   21   36 1
@<TRIPOS>MOLECULE
ZINC39287087
   31    32     0     0     0
SMALL
USER_CHARGES

@<TRIPOS>ATOM
      1 C1         -0.0471    1.5026   -0.2649 C.3       1 <0>        -0.1883
      2 C2          0.0017   -0.0032    0.0014 C.3       1 <0>         0.1879
      3 C3          0.6108   -0.6964   -1.2165 C.3       1 <0>        -0.1389
      4 C4          2.1539   -0.8005   -1.0616 C.3       1 <0>        -0.5659
      5 S1          2.2560   -1.2029    0.7379 S.o2      1 <0>         2.3498
      6 O1          2.0113   -2.5907    0.9210 O.2       1 <0>        -0.9308
      7 O2          3.4319   -0.6189    1.2814 O.2       1 <0>        -0.9277
      8 C5          0.7868   -0.2490    1.3047 C.3       1 <0>        -0.5595
      9 N1         -1.3680   -0.4917    0.1793 N.pl3     1 <0>        -0.6684
     10 C6         -2.0949   -0.0882    1.2400 C.2       1 <0>         0.5575
     11 S2         -1.4661    1.0911    2.3100 S.2       1 <0>        -0.5556
     12 N2         -3.3169   -0.6131    1.4585 N.pl3     1 <0>        -0.6857
     13 C7         -4.1071   -0.1745    2.6115 C.3       1 <0>         0.3874
     14 H1         -4.0685    0.9102    2.7117 H         1 <0>         0.1944
     15 N3         -5.5034   -0.6358    2.4904 N.pl3     1 <0>        -0.6851
     16 C8         -5.6851   -1.4372    3.5632 C.2       1 <0>         0.3562
     17 N4         -4.5663   -1.5002    4.2954 N.2       1 <0>        -0.1277
     18 N5         -3.6327   -0.8260    3.8430 N.2       1 <0>        -0.0461
     19 S3         -7.1420   -2.2562    3.9342 S.2       1 <0>        -0.3003
     20 H2          0.9657    1.9054   -0.2605 H         1 <0>         0.0803
     21 H3         -0.5064    1.6850   -1.2365 H         1 <0>         0.0617
     22 H4         -0.6354    1.9902    0.5124 H         1 <0>         0.1163
     23 H5          0.1894   -1.6973   -1.3100 H         1 <0>         0.0947
     24 H6          0.3763   -0.1224   -2.1129 H         1 <0>         0.1138
     25 H7          2.5611   -1.6061   -1.6726 H         1 <0>         0.1463
     26 H8          2.6406    0.1489   -1.2847 H         1 <0>         0.1457
     27 H9          1.0917    0.6960    1.7542 H         1 <0>         0.1697
     28 H10         0.1940   -0.8362    2.0060 H         1 <0>         0.1482
     29 H11        -1.7517   -1.1055   -0.4664 H         1 <0>         0.4041
     30 H12        -3.6732   -1.2812    0.8522 H         1 <0>         0.4083
     31 H13        -6.1454   -0.4139    1.7980 H         1 <0>         0.4578
@<TRIPOS>BOND
     1    1    2 1
     2    1   20 1
     3    1   21 1
     4    1   22 1
     5    2    8 1
     6    2    3 1
     7    2    9 1
     8    3    4 1
     9    3   23 1
    10    3   24 1
    11    4    5 1
    12    4   25 1
    13    4   26 1
    14    5    6 2
    15    5    7 2
    16    5    8 1
    17    8   27 1
    18    8   28 1
    19    9   10 1
    20    9   29 1
    21   10   11 2
    22   10   12 1
    23   12   13 1
    24   12   30 1
    25   13   14 1
    26   13   18 1
    27   13   15 1
    28   15   16 1
    29   15   31 1
    30   16   17 1
    31   16   19 2
    32   17   18 2
@<TRIPOS>MOLECULE
ZINC48404573
   33    34     0     0     0
SMALL
USER_CHARGES

@<TRIPOS>ATOM
      1 C1         -0.0184    1.5028    0.0103 C.3       1 <0>        -0.0794
      2 C2          0.0021   -0.0041    0.0020 C.2       1 <0>         0.0843
      3 C3          0.0059   -0.7057   -1.1580 C.2       1 <0>        -0.2124
      4 S1          0.0324   -2.3787   -0.5348 S.3       1 <0>         0.1122
      5 C4          0.0358   -2.0148    1.1084 C.2       1 <0>         0.2662
      6 N1          0.0227   -0.6995    1.1240 N.2       1 <0>        -0.5119
      7 N2          0.0531   -2.8912    2.1872 N.am      1 <0>        -0.6164
      8 C5          0.0530   -2.4104    3.4462 C.2       1 <0>         0.5317
      9 O1          0.0377   -1.2129    3.6380 O.2       1 <0>        -0.4516
     10 C6          0.0718   -3.3606    4.6157 C.3       1 <0>        -0.1548
     11 S2          0.0668   -2.4146    6.1635 S.3       1 <0>         0.1134
     12 C7          0.0900   -3.6509    7.4188 C.2       1 <0>         0.1674
     13 N3          0.1124   -4.9505    7.2341 N.2       1 <0>        -0.2928
     14 N4          0.1243   -5.5526    8.3696 N.2       1 <0>        -0.2689
     15 C8          0.1103   -4.6812    9.3382 C.2       1 <0>         0.1532
     16 N5          0.0939   -3.4385    8.7675 N.pl3     1 <0>        -0.3061
     17 N6          0.0808   -2.2346    9.4129 N.3       1 <0>        -0.5845
     18 C9          0.1175   -4.9862   10.8140 C.3       1 <0>        -0.0699
     19 C10        -0.0087   -0.2103   -2.5811 C.3       1 <0>        -0.0593
     20 H1          1.0042    1.8801    0.0026 H         1 <0>         0.0762
     21 H2         -0.5455    1.8639   -0.8728 H         1 <0>         0.0760
     22 H3         -0.5286    1.8543    0.9071 H         1 <0>         0.0763
     23 H4          0.0654   -3.8490    2.0338 H         1 <0>         0.4297
     24 H5         -0.8097   -4.0005    4.5782 H         1 <0>         0.1322
     25 H6          0.9700   -3.9763    4.5692 H         1 <0>         0.1329
     26 H7         -0.8646   -1.9290    9.5889 H         1 <0>         0.3689
     27 H8          0.6122   -2.2778   10.2696 H         1 <0>         0.3790
     28 H9          1.1467   -5.0414   11.1686 H         1 <0>         0.0921
     29 H10        -0.4099   -4.1975   11.3505 H         1 <0>         0.0749
     30 H11        -0.3792   -5.9404   10.9902 H         1 <0>         0.1036
     31 H12         1.0153   -0.0762   -2.9297 H         1 <0>         0.0788
     32 H13        -0.5156   -0.9385   -3.2142 H         1 <0>         0.0739
     33 H14        -0.5365    0.7423   -2.6288 H         1 <0>         0.0851
@<TRIPOS>BOND
     1    1    2 1
     2    1   20 1
     3    1   21 1
     4    1   22 1
     5    2    6 1
     6    2    3 2
     7    3    4 1
     8    3   19 1
     9    4    5 1
    10    5    6 2
    11    5    7 1
    12    7    8 am
    13    7   23 1
    14    8    9 2
    15    8   10 1
    16   10   11 1
    17   10   24 1
    18   10   25 1
    19   11   12 1
    20   12   16 1
    21   12   13 2
    22   13   14 1
    23   14   15 2
    24   15   16 1
    25   15   18 1
    26   16   17 1
    27   17   26 1
    28   17   27 1
    29   18   28 1
    30   18   29 1
    31   18   30 1
    32   19   31 1
    33   19   32 1
    34   19   33 1
@<TRIPOS>MOLECULE
ZINC58997113
   44    45     0     0     0
SMALL
USER_CHARGES

@<TRIPOS>ATOM
      1 C1         -0.0279    1.5296    0.0118 C.3       1 <0>        -0.1590
      2 C2         -0.0122   -0.0003    0.0056 C.3       1 <0>        -0.1132
      3 C3          0.7051   -0.4979   -1.2508 C.3       1 <0>         0.1254
      4 N1         -0.0641   -0.1134   -2.4369 N.am      1 <0>        -0.7279
      5 C4          0.3792   -0.4475   -3.6650 C.2       1 <0>         0.5189
      6 O1          1.4149   -1.0665   -3.7883 O.2       1 <0>        -0.5356
      7 C5         -0.4120   -0.0520   -4.8851 C.3       1 <0>        -0.1063
      8 C6         -1.8077   -0.6756   -4.8119 C.3       1 <0>        -0.1266
      9 C7         -2.6206   -0.2433   -6.0363 C.3       1 <0>         0.1295
     10 N2         -1.8679   -0.5893   -7.2498 N.am      1 <0>        -0.6302
     11 C8         -0.4832   -0.1162   -7.3812 C.3       1 <0>         0.1109
     12 C9          0.3058   -0.5499   -6.1417 C.3       1 <0>        -0.1154
     13 C10        -2.4369   -1.3271   -8.2237 C.2       1 <0>         0.7100
     14 O2         -3.5484   -1.7930   -8.0628 O.2       1 <0>        -0.5918
     15 N3         -1.7737   -1.5485   -9.3759 N.am      1 <0>        -0.8677
     16 C11         0.7232   -0.5078    1.2476 C.3       1 <0>         0.1397
     17 N4         -0.0286   -0.1328    2.4477 N.pl3     1 <0>        -0.3718
     18 C12        -0.4534   -0.9740    3.4136 C.2       1 <0>         0.0535
     19 C13        -1.1060   -0.2386    4.3433 C.2       1 <0>        -0.2732
     20 C14        -1.0792    1.0978    3.9314 C.2       1 <0>         0.0439
     21 N5         -0.4284    1.1632    2.7983 N.2       1 <0>        -0.2923
     22 H1          0.9959    1.9035    0.0059 H         1 <0>         0.0557
     23 H2         -0.5519    1.8911   -0.8730 H         1 <0>         0.0508
     24 H3         -0.5390    1.8841    0.9069 H         1 <0>         0.0928
     25 H4         -1.0361   -0.3742    0.0116 H         1 <0>         0.0826
     26 H5          1.6988   -0.0529   -1.3022 H         1 <0>         0.0732
     27 H6          0.7948   -1.5836   -1.2121 H         1 <0>         0.0702
     28 H7         -0.8924    0.3816   -2.3383 H         1 <0>         0.4018
     29 H8         -0.5011    1.0336   -4.9239 H         1 <0>         0.1019
     30 H9         -1.7205   -1.7620   -4.7982 H         1 <0>         0.0753
     31 H10        -2.3094   -0.3389   -3.9047 H         1 <0>         0.0805
     32 H11        -3.5791   -0.7624   -6.0404 H         1 <0>         0.1003
     33 H12        -2.7859    0.8335   -6.0035 H         1 <0>         0.0707
     34 H13        -0.0314   -0.5513   -8.2726 H         1 <0>         0.0825
     35 H14        -0.4743    0.9710   -7.4581 H         1 <0>         0.0741
     36 H15         1.3082   -0.1237   -6.1810 H         1 <0>         0.0862
     37 H16         0.3731   -1.6375   -6.1154 H         1 <0>         0.0767
     38 H17        -0.8600   -1.2388   -9.4769 H         1 <0>         0.3963
     39 H18        -2.2101   -2.0176  -10.1043 H         1 <0>         0.4152
     40 H19         0.8123   -1.5931    1.1990 H         1 <0>         0.0995
     41 H20         1.7176   -0.0632    1.2880 H         1 <0>         0.0895
     42 H21        -0.3002   -2.0428    3.4398 H         1 <0>         0.1732
     43 H22        -1.5668   -0.6168    5.2439 H         1 <0>         0.1474
     44 H23        -1.5159    1.9322    4.4600 H         1 <0>         0.1828
@<TRIPOS>BOND
     1    1    2 1
     2    1   22 1
     3    1   23 1
     4    1   24 1
     5    2    3 1
     6    2   16 1
     7    2   25 1
     8    3    4 1
     9    3   26 1
    10    3   27 1
    11    4    5 am
    12    4   28 1
    13    5    6 2
    14    5    7 1
    15    7   12 1
    16    7    8 1
    17    7   29 1
    18    8    9 1
    19    8   30 1
    20    8   31 1
    21    9   10 1
    22    9   32 1
    23    9   33 1
    24   10   11 1
    25   10   13 am
    26   11   12 1
    27   11   34 1
    28   11   35 1
    29   12   36 1
    30   12   37 1
    31   13   14 2
    32   13   15 am
    33   15   38 1
    34   15   39 1
    35   16   17 1
    36   16   40 1
    37   16   41 1
    38   17   21 1
    39   17   18 1
    40   18   19 2
    41   18   42 1
    42   19   20 1
    43   19   43 1
    44   20   21 2
    45   20   44 1
@<TRIPOS>MOLECULE
ZINC65862129
   35    36     0     0     0
SMALL
USER_CHARGES

@<TRIPOS>ATOM
      1 C1         -0.0166    1.3754    0.0096 C.ar      1 <0>        -0.0908
      2 C2          1.1677    2.0943    0.0022 C.ar      1 <0>        -0.1067
      3 C3          2.3838    1.4409   -0.0129 C.ar      1 <0>        -0.0709
      4 C4          2.4267    0.0476   -0.0212 C.ar      1 <0>        -0.0038
      5 C5          1.2212   -0.6852   -0.0136 C.ar      1 <0>        -0.0297
      6 C6          0.0021   -0.0041    0.0020 C.ar      1 <0>        -0.1008
      7 C7          1.2481   -2.1553   -0.0227 C.2       1 <0>        -0.0233
      8 C8          0.0925   -2.8510   -0.0154 C.2       1 <0>        -0.1926
      9 C9          0.1194   -4.3155   -0.0245 C.2       1 <0>         0.5563
     10 O1          1.1843   -4.9045   -0.0386 O.2       1 <0>        -0.5136
     11 N1         -1.0353   -5.0106   -0.0172 N.am      1 <0>        -0.6286
     12 C10        -1.0096   -6.4108   -0.0258 C.2       1 <0>         0.2939
     13 C11         0.1417   -7.2148   -0.0364 C.2       1 <0>        -0.2592
     14 C12        -0.2550   -8.5076   -0.0415 C.2       1 <0>         0.0622
     15 N2         -1.6046   -8.5267   -0.0344 N.pl3     1 <0>        -0.3607
     16 N3         -2.0574   -7.2012   -0.0197 N.2       1 <0>        -0.2926
     17 C13        -2.4484   -9.7243   -0.0373 C.3       1 <0>         0.1202
     18 C14        -3.3977   -9.6728    1.1320 C.2       1 <0>         0.5008
     19 O2         -3.3720   -8.7286    1.8928 O.2       1 <0>        -0.5098
     20 N4         -4.2752  -10.6759    1.3322 N.am      1 <0>        -0.8540
     21 C15         3.6854   -0.6350   -0.0378 C.1       1 <0>         0.2436
     22 N5          4.6840   -1.1765   -0.0510 N.1       1 <0>        -0.3979
     23 H1         -0.9613    1.8986    0.0260 H         1 <0>         0.1367
     24 H2          1.1394    3.1739    0.0078 H         1 <0>         0.1382
     25 H3          3.3020    2.0094   -0.0186 H         1 <0>         0.1385
     26 H4         -0.9256   -0.5570    0.0079 H         1 <0>         0.1399
     27 H5          2.1931   -2.6780   -0.0352 H         1 <0>         0.1378
     28 H6         -0.8524   -2.3283   -0.0029 H         1 <0>         0.1405
     29 H7         -1.8840   -4.5412   -0.0059 H         1 <0>         0.4174
     30 H8          1.1628   -6.8631   -0.0402 H         1 <0>         0.1739
     31 H9          0.3930   -9.3716   -0.0502 H         1 <0>         0.1796
     32 H10        -3.0176   -9.7654   -0.9659 H         1 <0>         0.1162
     33 H11        -1.8203  -10.6115    0.0435 H         1 <0>         0.1291
     34 H12        -4.2958  -11.4310    0.7237 H         1 <0>         0.4028
     35 H13        -4.8863  -10.6427    2.0848 H         1 <0>         0.4072
@<TRIPOS>BOND
     1    1    6 ar
     2    1    2 ar
     3    1   23 1
     4    2    3 ar
     5    2   24 1
     6    3    4 ar
     7    3   25 1
     8    4    5 ar
     9    4   21 1
    10    5    6 ar
    11    5    7 1
    12    6   26 1
    13    7    8 2
    14    7   27 1
    15    8    9 1
    16    8   28 1
    17    9   10 2
    18    9   11 am
    19   11   12 1
    20   11   29 1
    21   12   16 2
    22   12   13 1
    23   13   14 2
    24   13   30 1
    25   14   15 1
    26   14   31 1
    27   15   16 1
    28   15   17 1
    29   17   18 1
    30   17   32 1
    31   17   33 1
    32   18   19 2
    33   18   20 am
    34   20   34 1
    35   20   35 1
    36   21   22 3
@<TRIPOS>MOLECULE
ZINC30707273
   35    36     0     0     0
SMALL
USER_CHARGES
(2S)-N-[5-(2-amino-2-oxo-ethyl)sulfanyl-4-methyl-thiazol-2-yl]-1,4-dioxane-2-carboxamide
@<TRIPOS>ATOM
      1 C1         -5.7741    1.5293   -4.5727 C.3       1 <0>        -0.0837
      2 C2         -4.3806    1.8753   -4.1148 C.2       1 <0>         0.1027
      3 C3         -3.6171    2.7419   -4.8374 C.2       1 <0>        -0.2653
      4 S1         -2.1249    2.7675   -3.8522 S.3       1 <0>         0.1065
      5 C4         -2.6747    1.6272   -2.5899 C.2       1 <0>         0.3194
      6 N1         -3.8905    1.3363   -3.0140 N.2       1 <0>        -0.5172
      7 N2         -1.9990    1.1649   -1.4640 N.am      1 <0>        -0.6195
      8 C5         -0.7441    1.5863   -1.2108 C.2       1 <0>         0.5258
      9 O1         -0.2035    2.3684   -1.9640 O.2       1 <0>        -0.4756
     10 C6         -0.0127    1.0858    0.0080 C.3       1 <0>         0.0477
     11 H1          0.0601   -0.0115   -0.0175 H         1 <0>         0.1087
     12 C7         -0.7221    1.5811    1.2716 C.3       1 <0>         0.0357
     13 O2          0.0399    1.1954    2.4195 O.3       1 <0>        -0.3669
     14 C8          1.3817    1.6918    2.4093 C.3       1 <0>         0.0161
     15 C9          2.0911    1.1965    1.1457 C.3       1 <0>         0.0232
     16 O3          1.3291    1.5823   -0.0021 O.3       1 <0>        -0.3543
     17 S2         -3.9952    3.5998   -6.3293 S.3       1 <0>         0.0839
     18 C10        -2.4940    4.5567   -6.6778 C.3       1 <0>        -0.1745
     19 C11        -2.6856    5.3478   -7.9461 C.2       1 <0>         0.5413
     20 O4         -3.7319    5.2734   -8.5549 O.2       1 <0>        -0.5313
     21 N3         -1.6943    6.1379   -8.4038 N.am      1 <0>        -0.8704
     22 H2         -6.0006    2.0736   -5.5014 H         1 <0>         0.0764
     23 H3         -6.4972    1.8149   -3.7946 H         1 <0>         0.0789
     24 H4         -5.8415    0.4468   -4.7564 H         1 <0>         0.0789
     25 H5         -2.4893    0.4556   -0.7809 H         1 <0>         0.4570
     26 H6         -0.8095    2.6771    1.2373 H         1 <0>         0.0741
     27 H7         -1.7259    1.1348    1.3274 H         1 <0>         0.1161
     28 H8          1.3658    2.7917    2.4171 H         1 <0>         0.0679
     29 H9          1.9146    1.3265    3.2995 H         1 <0>         0.1151
     30 H10         3.0949    1.6428    1.0900 H         1 <0>         0.1178
     31 H11         2.1785    0.1005    1.1800 H         1 <0>         0.0692
     32 H12        -2.2958    5.2449   -5.8428 H         1 <0>         0.1202
     33 H13        -1.6420    3.8714   -6.7983 H         1 <0>         0.1202
     34 H14        -1.8342    6.7153   -9.3296 H         1 <0>         0.4314
     35 H15        -0.7453    6.2053   -7.8516 H         1 <0>         0.4245
@<TRIPOS>BOND
     1    1    2 1
     2    1   22 1
     3    1   23 1
     4    1   24 1
     5    2    6 1
     6    2    3 2
     7    3    4 1
     8    3   17 1
     9    4    5 1
    10    5    6 2
    11    5    7 1
    12    7    8 am
    13    7   25 1
    14    8    9 2
    15    8   10 1
    16   10   11 1
    17   10   16 1
    18   10   12 1
    19   12   13 1
    20   12   26 1
    21   12   27 1
    22   13   14 1
    23   14   15 1
    24   14   28 1
    25   14   29 1
    26   15   16 1
    27   15   30 1
    28   15   31 1
    29   17   18 1
    30   18   19 1
    31   18   32 1
    32   18   33 1
    33   19   20 2
    34   19   21 am
    35   21   34 1
    36   21   35 1
@<TRIPOS>MOLECULE
ZINC42806559
   37    38     0     0     0
SMALL
USER_CHARGES

@<TRIPOS>ATOM
      1 C1         -0.0225    1.8097    0.0120 C.3       1 <0>        -0.6494
      2 S1          0.0021   -0.0041    0.0020 S.o2      1 <0>         2.4995
      3 O1          0.8352   -0.4880    1.0465 O.2       1 <0>        -0.9349
      4 O2         -1.3147   -0.5105   -0.1678 O.2       1 <0>        -0.9291
      5 C2          0.8454   -0.4373   -1.4831 C.ar      1 <0>        -0.6165
      6 C3          0.1333   -0.6117   -2.6526 C.ar      1 <0>        -0.0228
      7 C4          0.7989   -0.9550   -3.8305 C.ar      1 <0>        -0.1038
      8 C5          2.1839   -1.1201   -3.8207 C.ar      1 <0>        -0.1169
      9 C6          2.8902   -0.9422   -2.6411 C.ar      1 <0>         0.1960
     10 C7          2.2183   -0.5957   -1.4743 C.ar      1 <0>        -0.0770
     11 N1          4.2775   -1.1070   -2.6257 N.pl3     1 <0>        -0.8740
     12 C8          0.0382   -1.1433   -5.0843 C.2       1 <0>         0.5621
     13 O3         -1.1687   -0.9993   -5.0904 O.2       1 <0>        -0.5185
     14 N2          0.6831   -1.4747   -6.2204 N.am      1 <0>        -0.7269
     15 C9         -0.0706   -1.6613   -7.4628 C.3       1 <0>         0.1086
     16 C10         0.8925   -2.0298   -8.5931 C.3       1 <0>         0.1264
     17 N3          0.1388   -2.2164   -9.8354 N.pl3     1 <0>        -0.3768
     18 C11         0.3699   -1.5867  -11.0064 C.2       1 <0>         0.0545
     19 C12        -0.5400   -2.0348  -11.9022 C.2       1 <0>        -0.2701
     20 C13        -1.3550   -2.9704  -11.2565 C.2       1 <0>         0.0499
     21 N4         -0.9452   -3.0845  -10.0192 N.2       1 <0>        -0.2928
     22 H1          1.0001    2.1870    0.0043 H         1 <0>         0.1318
     23 H2         -0.5497    2.1708   -0.8711 H         1 <0>         0.1338
     24 H3         -0.5327    2.1613    0.9088 H         1 <0>         0.1354
     25 H4         -0.9390   -0.4830   -2.6561 H         1 <0>         0.1545
     26 H5          2.7043   -1.3860   -4.7290 H         1 <0>         0.1317
     27 H6          2.7706   -0.4536   -0.5572 H         1 <0>         0.1469
     28 H7          4.7465   -1.3458   -3.4405 H         1 <0>         0.4023
     29 H8          4.7716   -0.9825   -1.8003 H         1 <0>         0.4049
     30 H9          1.6462   -1.5897   -6.2156 H         1 <0>         0.4003
     31 H10        -0.7979   -2.4622   -7.3297 H         1 <0>         0.0883
     32 H11        -0.5901   -0.7369   -7.7149 H         1 <0>         0.0777
     33 H12         1.6198   -1.2289   -8.7262 H         1 <0>         0.1025
     34 H13         1.4120   -2.9542   -8.3409 H         1 <0>         0.0918
     35 H14         1.1424   -0.8559  -11.1947 H         1 <0>         0.1748
     36 H15        -0.6226   -1.7244  -12.9333 H         1 <0>         0.1500
     37 H16        -2.1774   -3.5092  -11.7035 H         1 <0>         0.1857
@<TRIPOS>BOND
     1    1    2 1
     2    1   22 1
     3    1   23 1
     4    1   24 1
     5    2    3 2
     6    2    4 2
     7    2    5 1
     8    5   10 ar
     9    5    6 ar
    10    6    7 ar
    11    6   25 1
    12    7    8 ar
    13    7   12 1
    14    8    9 ar
    15    8   26 1
    16    9   10 ar
    17    9   11 1
    18   10   27 1
    19   11   28 1
    20   11   29 1
    21   12   13 2
    22   12   14 am
    23   14   15 1
    24   14   30 1
    25   15   16 1
    26   15   31 1
    27   15   32 1
    28   16   17 1
    29   16   33 1
    30   16   34 1
    31   17   21 1
    32   17   18 1
    33   18   19 2
    34   18   35 1
    35   19   20 1
    36   19   36 1
    37   20   21 2
    38   20   37 1
@<TRIPOS>MOLECULE
ZINC54049915
   36    38     0     0     0
SMALL
USER_CHARGES

@<TRIPOS>ATOM
      1 C1         -0.0168    1.3856    0.0097 C.ar      1 <0>        -0.1810
      2 C2          1.1809    2.0837    0.0020 C.ar      1 <0>         0.0574
      3 C3          2.3647    1.4015   -0.0130 C.ar      1 <0>        -0.6761
      4 C4          2.4195    0.0008   -0.0210 C.ar      1 <0>        -0.0637
      5 C5          1.2002   -0.6955   -0.0127 C.ar      1 <0>        -0.1119
      6 C6          0.0021   -0.0041    0.0020 C.ar      1 <0>         0.2567
      7 N1         -1.2030   -0.7109    0.0102 N.pl3     1 <0>        -0.8612
      8 C7          3.7974   -0.5097   -0.0374 C.2       1 <0>         0.5365
      9 O1          4.0207   -1.7045   -0.0464 O.2       1 <0>        -0.4614
     10 N2          4.8021    0.3793   -0.0426 N.am      1 <0>        -0.9212
     11 S1          4.0700    1.8836   -0.0273 S.o2      1 <0>         2.6572
     12 O2          4.3576    2.4911    1.2247 O.2       1 <0>        -0.9214
     13 O3          4.3328    2.5046   -1.2781 O.2       1 <0>        -0.9242
     14 C8          6.2388    0.0930   -0.0579 C.3       1 <0>         0.1549
     15 C9          6.7006   -0.1220   -1.5006 C.3       1 <0>        -0.1703
     16 C10         8.1784   -0.4166   -1.5163 C.2       1 <0>         0.5267
     17 O4          8.8010   -0.4511   -0.4760 O.2       1 <0>        -0.5340
     18 N3          8.8083   -0.6416   -2.6864 N.am      1 <0>        -0.7018
     19 C11        10.2450   -0.9280   -2.7017 C.3       1 <0>         0.0758
     20 C12        11.0932   -0.2294   -3.7663 C.3       1 <0>        -0.1917
     21 C13        10.7939   -1.7250   -3.8867 C.3       1 <0>        -0.1882
     22 H1         -0.9567    1.9172    0.0260 H         1 <0>         0.1458
     23 H2          1.1782    3.1637    0.0074 H         1 <0>         0.1463
     24 H3          1.1976   -1.7755   -0.0185 H         1 <0>         0.1449
     25 H4         -2.0463   -0.2317    0.0211 H         1 <0>         0.4084
     26 H5         -1.1963   -1.6809    0.0049 H         1 <0>         0.4068
     27 H6          6.7813    0.9330    0.3759 H         1 <0>         0.1089
     28 H7          6.4361   -0.8068    0.5248 H         1 <0>         0.1118
     29 H8          6.1581   -0.9620   -1.9343 H         1 <0>         0.1092
     30 H9          6.5032    0.7778   -2.0832 H         1 <0>         0.1109
     31 H10         8.3104   -0.6140   -3.5184 H         1 <0>         0.4043
     32 H11        10.7008   -1.0980   -1.7263 H         1 <0>         0.1400
     33 H12        10.5823    0.4432   -4.4553 H         1 <0>         0.0981
     34 H13        12.1074    0.0603   -3.4914 H         1 <0>         0.1041
     35 H14        11.6111   -2.4192   -3.6910 H         1 <0>         0.1051
     36 H15        10.0861   -2.0364   -4.6549 H         1 <0>         0.0980
@<TRIPOS>BOND
     1    1    6 ar
     2    1    2 ar
     3    1   22 1
     4    2    3 ar
     5    2   23 1
     6    3   11 1
     7    3    4 ar
     8    4    5 ar
     9    4    8 1
    10    5    6 ar
    11    5   24 1
    12    6    7 1
    13    7   25 1
    14    7   26 1
    15    8    9 2
    16    8   10 am
    17   10   11 1
    18   10   14 1
    19   11   12 2
    20   11   13 2
    21   14   15 1
    22   14   27 1
    23   14   28 1
    24   15   16 1
    25   15   29 1
    26   15   30 1
    27   16   17 2
    28   16   18 am
    29   18   19 1
    30   18   31 1
    31   19   21 1
    32   19   20 1
    33   19   32 1
    34   20   21 1
    35   20   33 1
    36   20   34 1
    37   21   35 1
    38   21   36 1
@<TRIPOS>MOLECULE
ZINC49279080
   39    40     0     0     0
SMALL
USER_CHARGES

@<TRIPOS>ATOM
      1 C1         -0.4116    1.4902    0.0753 C.3       1 <0>        -0.1220
      2 C2         -0.3393   -0.0149    0.0584 C.ar      1 <0>        -0.0967
      3 C3         -0.5741   -0.7022   -1.1147 C.ar      1 <0>        -0.0498
      4 C4         -0.5105   -2.0839   -1.1404 C.ar      1 <0>        -0.1108
      5 C5         -0.2090   -2.7810    0.0180 C.ar      1 <0>        -0.0336
      6 C6          0.0260   -2.0969    1.1890 C.ar      1 <0>        -0.1285
      7 C7         -0.0299   -0.7091    1.2261 C.ar      1 <0>         0.1820
      8 N1          0.2493   -0.2495    2.5140 N.am      1 <0>        -0.5281
      9 C8          0.5012   -1.2546    3.3693 C.2       1 <0>         0.5488
     10 O1          0.7717   -1.1478    4.5468 O.2       1 <0>        -0.4872
     11 C9          0.3709   -2.5462    2.5902 C.3       1 <0>         0.1065
     12 H1         -0.4244   -3.1703    2.9977 H         1 <0>         0.0974
     13 N2          1.6497   -3.2691    2.5988 N.3       1 <0>        -0.8212
     14 C10         0.2663    1.1664    2.8899 C.3       1 <0>         0.0795
     15 C11        -1.1246    1.6007    3.2745 C.2       1 <0>         0.4956
     16 O2         -2.0399    0.8059    3.2381 O.2       1 <0>        -0.5224
     17 N3         -1.3513    2.8725    3.6588 N.am      1 <0>        -0.7218
     18 C12        -2.7034    3.2947    4.0326 C.3       1 <0>         0.1225
     19 C13        -2.6857    4.7734    4.4253 C.3       1 <0>         0.0467
     20 O3         -2.3440    5.5648    3.2856 O.3       1 <0>        -0.3904
     21 C14        -2.2994    6.9692    3.5454 C.3       1 <0>         0.0301
     22 Br1        -0.8349   -3.0183   -2.7521 Br        1 <0>        -0.0395
     23 H2          0.5899    1.9035   -0.0446 H         1 <0>         0.0773
     24 H3         -1.0463    1.8327   -0.7420 H         1 <0>         0.0782
     25 H4         -0.8308    1.8232    1.0248 H         1 <0>         0.0661
     26 H5         -0.8092   -0.1586   -2.0178 H         1 <0>         0.1427
     27 H6         -0.1586   -3.8597    0.0024 H         1 <0>         0.1385
     28 H7          1.8872   -3.5726    3.5313 H         1 <0>         0.3574
     29 H8          1.6285   -4.0491    1.9591 H         1 <0>         0.3570
     30 H9          0.9386    1.3096    3.7358 H         1 <0>         0.1236
     31 H10         0.6127    1.7624    2.0456 H         1 <0>         0.1260
     32 H11        -0.6192    3.5082    3.6879 H         1 <0>         0.4058
     33 H12        -3.3757    3.1515    3.1867 H         1 <0>         0.0795
     34 H13        -3.0497    2.6987    4.8770 H         1 <0>         0.0854
     35 H14        -3.6714    5.0649    4.7878 H         1 <0>         0.0699
     36 H15        -1.9479    4.9316    5.2119 H         1 <0>         0.0591
     37 H16        -3.2771    7.3063    3.8897 H         1 <0>         0.0438
     38 H17        -1.5535    7.1730    4.3138 H         1 <0>         0.0433
     39 H18        -2.0334    7.4997    2.6311 H         1 <0>         0.0890
@<TRIPOS>BOND
     1    1    2 1
     2    1   23 1
     3    1   24 1
     4    1   25 1
     5    2    7 ar
     6    2    3 ar
     7    3    4 ar
     8    3   26 1
     9    4    5 ar
    10    4   22 1
    11    5    6 ar
    12    5   27 1
    13    6   11 1
    14    6    7 ar
    15    7    8 1
    16    8    9 am
    17    8   14 1
    18    9   10 2
    19    9   11 1
    20   11   12 1
    21   11   13 1
    22   13   28 1
    23   13   29 1
    24   14   15 1
    25   14   30 1
    26   14   31 1
    27   15   16 2
    28   15   17 am
    29   17   18 1
    30   17   32 1
    31   18   19 1
    32   18   33 1
    33   18   34 1
    34   19   20 1
    35   19   35 1
    36   19   36 1
    37   20   21 1
    38   21   37 1
    39   21   38 1
    40   21   39 1
@<TRIPOS>MOLECULE
ZINC65083624
   31    32     0     0     0
SMALL
USER_CHARGES

@<TRIPOS>ATOM
      1 C1         -0.0125    1.3748    0.1941 C.ar      1 <0>        -0.1432
      2 C2          1.1736    2.0819    0.1912 C.ar      1 <0>         0.0051
      3 C3          2.3739    1.4212    0.0028 C.ar      1 <0>        -0.6899
      4 C4          2.3909    0.0510   -0.1839 C.ar      1 <0>         0.0048
      5 C5          1.2086   -0.6624   -0.1822 C.ar      1 <0>        -0.1613
      6 C6          0.0009   -0.0020    0.0073 C.ar      1 <0>         0.2006
      7 N1         -1.1970   -0.7205    0.0101 N.am      1 <0>        -0.6526
      8 C7         -2.3229   -0.1554   -0.4690 C.2       1 <0>         0.4848
      9 O1         -2.2779    0.9401   -0.9901 O.2       1 <0>        -0.4713
     10 C8         -3.6225   -0.8751   -0.3591 C.2       1 <0>         0.3841
     11 O2         -3.6673   -1.9651    0.1594 O.2       1 <0>        -0.3863
     12 C9         -4.8814   -0.2432   -0.8948 C.3       1 <0>         0.0043
     13 H1         -4.8974    0.8214   -0.6614 H         1 <0>         0.1618
     14 C10        -4.9775   -0.4531   -2.3899 C.2       1 <0>        -0.1442
     15 C11        -6.0926   -1.1536   -2.5902 C.2       1 <0>        -0.1730
     16 C12        -6.7398   -1.4183   -1.3046 C.2       1 <0>         0.1509
     17 N2         -6.0634   -0.9057   -0.3286 N.2       1 <0>        -0.4642
     18 S1          3.8850    2.3275   -0.0001 S.o2      1 <0>         2.7037
     19 O3          4.8206    1.5547   -0.7395 O.2       1 <0>        -0.9621
     20 O4          3.5558    3.6648   -0.3502 O.2       1 <0>        -0.9612
     21 N3          4.4342    2.3686    1.5616 N.pl3     1 <0>        -1.2499
     22 H2         -0.9491    1.8907    0.3458 H         1 <0>         0.1468
     23 H3          1.1639    3.1521    0.3360 H         1 <0>         0.1506
     24 H4          3.3300   -0.4616   -0.3315 H         1 <0>         0.1512
     25 H5          1.2225   -1.7324   -0.3284 H         1 <0>         0.1418
     26 H6         -1.2185   -1.6261    0.3568 H         1 <0>         0.4261
     27 H7         -4.2837   -0.1059   -3.1413 H         1 <0>         0.1659
     28 H8         -6.4621   -1.4760   -3.5524 H         1 <0>         0.1542
     29 H9         -7.6616   -1.9683   -1.1862 H         1 <0>         0.1835
     30 H10         3.9272    1.9348    2.2656 H         1 <0>         0.4168
     31 H11         5.2630    2.8265    1.7723 H         1 <0>         0.4219
@<TRIPOS>BOND
     1    1    6 ar
     2    1    2 ar
     3    1   22 1
     4    2    3 ar
     5    2   23 1
     6    3    4 ar
     7    3   18 1
     8    4    5 ar
     9    4   24 1
    10    5    6 ar
    11    5   25 1
    12    6    7 1
    13    7    8 am
    14    7   26 1
    15    8    9 2
    16    8   10 1
    17   10   11 2
    18   10   12 1
    19   12   13 1
    20   12   17 1
    21   12   14 1
    22   14   15 2
    23   14   27 1
    24   15   16 1
    25   15   28 1
    26   16   17 2
    27   16   29 1
    28   18   19 2
    29   18   20 2
    30   18   21 1
    31   21   30 1
    32   21   31 1
@<TRIPOS>MOLECULE
ZINC19743056
   41    43     0     0     0
SMALL
USER_CHARGES
2-(5-amino-3-methyl-pyrazol-1-yl)-N-[(3-pyrazol-1-ylphenyl)methyl]acetamide
@<TRIPOS>ATOM
      1 C1         10.5581    4.3891   -3.1248 C.3       1 <0>        -0.0746
      2 C2          9.0591    4.5438   -3.1093 C.2       1 <0>         0.1083
      3 C3          8.3616    5.7550   -3.0955 C.2       1 <0>        -0.3535
      4 C4          7.0302    5.4689   -3.0901 C.2       1 <0>         0.3864
      5 N1          6.9022    4.1225   -3.0907 N.pl3     1 <0>        -0.3895
      6 N2          8.1881    3.5675   -3.1064 N.2       1 <0>        -0.3088
      7 C5          5.6415    3.3764   -3.0826 C.3       1 <0>         0.1201
      8 C6          5.2227    3.1130   -1.6591 C.2       1 <0>         0.4938
      9 O1          5.9098    3.5094   -0.7417 O.2       1 <0>        -0.5165
     10 N3          4.0847    2.4369   -1.4056 N.am      1 <0>        -0.7360
     11 C7          3.6776    2.1808   -0.0218 C.3       1 <0>         0.1652
     12 C8          2.3807    1.4134   -0.0135 C.ar      1 <0>        -0.0833
     13 C9          2.3962    0.0305   -0.0211 C.ar      1 <0>        -0.1093
     14 C10         1.2084   -0.6770   -0.0131 C.ar      1 <0>        -0.0902
     15 C11         0.0021   -0.0041    0.0020 C.ar      1 <0>        -0.1333
     16 C12        -0.0167    1.3840    0.0097 C.ar      1 <0>         0.1605
     17 C13         1.1779    2.0918    0.0020 C.ar      1 <0>        -0.1013
     18 N4         -1.2393    2.0697    0.0192 N.pl3     1 <0>        -0.3262
     19 C14        -2.4661    1.5083    0.1118 C.2       1 <0>         0.0522
     20 C15        -3.3787    2.5071    0.0888 C.2       1 <0>        -0.2585
     21 C16        -2.6887    3.7185   -0.0299 C.2       1 <0>         0.0586
     22 N5         -1.4069    3.4575   -0.0717 N.2       1 <0>        -0.2912
     23 N6          5.9901    6.3940   -3.0817 N.pl3     1 <0>        -0.8796
     24 H1         11.0293    5.3831   -3.1237 H         1 <0>         0.0763
     25 H2         10.8608    3.8408   -4.0291 H         1 <0>         0.0741
     26 H3         10.8783    3.8305   -2.2329 H         1 <0>         0.0743
     27 H4          8.8003    6.7419   -3.0938 H         1 <0>         0.1415
     28 H5          4.8636    3.9653   -3.5906 H         1 <0>         0.1134
     29 H6          5.7783    2.4195   -3.6076 H         1 <0>         0.1263
     30 H7          3.4616    2.0774   -2.2377 H         1 <0>         0.4239
     31 H8          4.4554    1.5918    0.4862 H         1 <0>         0.0807
     32 H9          3.5408    3.1377    0.5032 H         1 <0>         0.0780
     33 H10         3.3381   -0.4978   -0.0337 H         1 <0>         0.1324
     34 H11         1.2237   -1.7569   -0.0191 H         1 <0>         0.1375
     35 H12        -0.9255   -0.5573    0.0083 H         1 <0>         0.1325
     36 H13         1.1664    3.1717    0.0076 H         1 <0>         0.1391
     37 H14        -2.6790    0.4525    0.1921 H         1 <0>         0.1786
     38 H15        -4.4507    2.3897    0.1479 H         1 <0>         0.1562
     39 H16        -3.1367    4.7000   -0.0783 H         1 <0>         0.1915
     40 H17         4.9460    6.0477   -3.0779 H         1 <0>         0.4115
     41 H18         6.2123    7.4713   -3.0789 H         1 <0>         0.4390
@<TRIPOS>BOND
     1    1    2 1
     2    1   24 1
     3    1   25 1
     4    1   26 1
     5    2    6 2
     6    2    3 1
     7    3    4 2
     8    3   27 1
     9    4    5 1
    10    4   23 1
    11    5    6 1
    12    5    7 1
    13    7    8 1
    14    7   28 1
    15    7   29 1
    16    8    9 2
    17    8   10 am
    18   10   11 1
    19   10   30 1
    20   11   12 1
    21   11   31 1
    22   11   32 1
    23   12   17 ar
    24   12   13 ar
    25   13   14 ar
    26   13   33 1
    27   14   15 ar
    28   14   34 1
    29   15   16 ar
    30   15   35 1
    31   16   17 ar
    32   16   18 1
    33   17   36 1
    34   18   22 1
    35   18   19 1
    36   19   20 2
    37   19   37 1
    38   20   21 1
    39   20   38 1
    40   21   22 2
    41   21   39 1
    42   23   40 1
    43   23   41 1
@<TRIPOS>MOLECULE
ZINC43165987
   42    44     0     0     0
SMALL
USER_CHARGES

@<TRIPOS>ATOM
      1 C1         -0.0167    1.3768    0.0096 C.ar      1 <0>        -0.1573
      2 C2          1.1716    2.0842    0.0021 C.ar      1 <0>        -0.0802
      3 C3          2.3750    1.4095   -0.0110 C.ar      1 <0>        -0.1542
      4 C4          2.3976    0.0182   -0.0179 C.ar      1 <0>         0.1385
      5 C5          1.2071   -0.6868   -0.0139 C.ar      1 <0>        -0.1820
      6 C6          0.0021   -0.0041    0.0020 C.ar      1 <0>        -0.0671
      7 C7          1.1867   -2.1943   -0.0325 C.3       1 <0>         0.2109
      8 H1          0.9541   -2.5414   -1.0392 H         1 <0>         0.1029
      9 C8          2.5558   -2.7338    0.3887 C.3       1 <0>        -0.1674
     10 C9          3.6338   -1.9865   -0.4067 C.3       1 <0>         0.0660
     11 O1          3.6019   -0.6103   -0.0255 O.3       1 <0>        -0.3153
     12 N1          0.1650   -2.6795    0.8986 N.am      1 <0>        -0.7349
     13 C10        -1.1171   -2.7855    0.4969 C.2       1 <0>         0.7077
     14 O2         -1.4258   -2.4784   -0.6383 O.2       1 <0>        -0.5797
     15 N2         -2.0570   -3.2319    1.3535 N.am      1 <0>        -0.7432
     16 C11        -3.4506   -3.3471    0.9168 C.3       1 <0>         0.1292
     17 C12        -4.3051   -3.8734    2.0717 C.3       1 <0>         0.1143
     18 N3         -5.6988   -3.9887    1.6350 N.pl3     1 <0>        -0.7136
     19 C13        -6.6681   -4.4490    2.5185 C.ar      1 <0>         0.3567
     20 C14        -6.3175   -4.7961    3.8216 C.ar      1 <0>        -0.0095
     21 N4         -7.2407   -5.2326    4.6567 N.ar      1 <0>        -0.4023
     22 C15        -8.4974   -5.3409    4.2583 C.ar      1 <0>        -0.0201
     23 C16        -8.8489   -4.9978    2.9670 C.ar      1 <0>         0.1074
     24 N5         -7.9306   -4.5541    2.1250 N.ar      1 <0>        -0.5026
     25 H2         -0.9590    1.9041    0.0259 H         1 <0>         0.1225
     26 H3          1.1576    3.1641    0.0061 H         1 <0>         0.1290
     27 H4          3.3024    1.9629   -0.0163 H         1 <0>         0.1311
     28 H5         -0.9273   -0.5542    0.0085 H         1 <0>         0.1324
     29 H6          2.7042   -2.5665    1.4555 H         1 <0>         0.0851
     30 H7          2.6128   -3.8005    0.1721 H         1 <0>         0.0939
     31 H8          4.6139   -2.4071   -0.1816 H         1 <0>         0.1154
     32 H9          3.4314   -2.0766   -1.4739 H         1 <0>         0.0698
     33 H10         0.4113   -2.9245    1.8043 H         1 <0>         0.3992
     34 H11        -1.8107   -3.4769    2.2592 H         1 <0>         0.3998
     35 H12        -3.8176   -2.3675    0.6104 H         1 <0>         0.0776
     36 H13        -3.5119   -4.0375    0.0755 H         1 <0>         0.0779
     37 H14        -3.9382   -4.8530    2.3781 H         1 <0>         0.0750
     38 H15        -4.2439   -3.1830    2.9130 H         1 <0>         0.0751
     39 H16        -5.9451   -3.7437    0.7293 H         1 <0>         0.4108
     40 H17        -5.2915   -4.7082    4.1473 H         1 <0>         0.1622
     41 H18        -9.2508   -5.6990    4.9443 H         1 <0>         0.1679
     42 H19        -9.8762   -5.0878    2.6459 H         1 <0>         0.1711
@<TRIPOS>BOND
     1    1    6 ar
     2    1    2 ar
     3    1   25 1
     4    2    3 ar
     5    2   26 1
     6    3    4 ar
     7    3   27 1
     8    4   11 1
     9    4    5 ar
    10    5    6 ar
    11    5    7 1
    12    6   28 1
    13    7    8 1
    14    7    9 1
    15    7   12 1
    16    9   10 1
    17    9   29 1
    18    9   30 1
    19   10   11 1
    20   10   31 1
    21   10   32 1
    22   12   13 am
    23   12   33 1
    24   13   14 2
    25   13   15 am
    26   15   16 1
    27   15   34 1
    28   16   17 1
    29   16   35 1
    30   16   36 1
    31   17   18 1
    32   17   37 1
    33   17   38 1
    34   18   19 1
    35   18   39 1
    36   19   24 ar
    37   19   20 ar
    38   20   21 ar
    39   20   40 1
    40   21   22 ar
    41   22   23 ar
    42   22   41 1
    43   23   24 ar
    44   23   42 1
@<TRIPOS>MOLECULE
ZINC49143922
   31    31     0     0     0
SMALL
USER_CHARGES

@<TRIPOS>ATOM
      1 C1         -0.0173    1.4248    0.0099 C.3       1 <0>         0.0292
      2 O1          0.0021   -0.0041    0.0020 O.3       1 <0>        -0.3909
      3 C2          0.6518   -0.5703   -1.1379 C.3       1 <0>         0.0447
      4 C3          0.6131   -2.0967   -1.0411 C.3       1 <0>         0.1378
      5 N1         -0.7759   -2.5559   -1.1188 N.am      1 <0>        -0.7383
      6 C4         -1.0549   -3.8729   -1.0544 C.2       1 <0>         0.7149
      7 O2         -0.1538   -4.6799   -0.9317 O.2       1 <0>        -0.5637
      8 N2         -2.3328   -4.2953   -1.1259 N.am      1 <0>        -0.5280
      9 N3         -3.3711   -3.3654   -1.2673 N.am      1 <0>        -0.5229
     10 C5         -4.6489   -3.7878   -1.3389 C.2       1 <0>         0.5706
     11 O3         -4.9005   -4.9756   -1.2807 O.2       1 <0>        -0.5156
     12 C6         -5.7446   -2.8066   -1.4880 C.ar      1 <0>        -0.1764
     13 C7         -7.0766   -3.2322   -1.5577 C.ar      1 <0>         0.0193
     14 C8         -8.0653   -2.2730   -1.6969 C.ar      1 <0>        -0.1544
     15 C9         -7.7082   -0.9370   -1.7621 C.ar      1 <0>         0.1634
     16 N4         -6.4441   -0.5662   -1.6938 N.ar      1 <0>        -0.4703
     17 C10        -5.4690   -1.4405   -1.5560 C.ar      1 <0>         0.1497
     18 Br1        -9.8836   -2.7823   -1.7975 Br        1 <0>        -0.0108
     19 H1          1.0053    1.8021    0.0021 H         1 <0>         0.0447
     20 H2         -0.5445    1.7859   -0.8732 H         1 <0>         0.0438
     21 H3         -0.5275    1.7763    0.9067 H         1 <0>         0.0891
     22 H4          0.1385   -0.2506   -2.0447 H         1 <0>         0.0589
     23 H5          1.6883   -0.2344   -1.1694 H         1 <0>         0.0733
     24 H6          1.1847   -2.5275   -1.8631 H         1 <0>         0.0889
     25 H7          1.0473   -2.4117   -0.0922 H         1 <0>         0.0821
     26 H8         -1.4948   -1.9121   -1.2167 H         1 <0>         0.3928
     27 H9         -2.5335   -5.2432   -1.0795 H         1 <0>         0.4462
     28 H10        -3.1703   -2.4176   -1.3137 H         1 <0>         0.4191
     29 H11        -7.3264   -4.2815   -1.5045 H         1 <0>         0.1629
     30 H12        -8.4770   -0.1863   -1.8711 H         1 <0>         0.1762
     31 H13        -4.4465   -1.0974   -1.4991 H         1 <0>         0.1639
@<TRIPOS>BOND
     1    1    2 1
     2    1   19 1
     3    1   20 1
     4    1   21 1
     5    2    3 1
     6    3    4 1
     7    3   22 1
     8    3   23 1
     9    4    5 1
    10    4   24 1
    11    4   25 1
    12    5    6 am
    13    5   26 1
    14    6    7 2
    15    6    8 am
    16    8    9 1
    17    8   27 1
    18    9   10 am
    19    9   28 1
    20   10   11 2
    21   10   12 1
    22   12   17 ar
    23   12   13 ar
    24   13   14 ar
    25   13   29 1
    26   14   15 ar
    27   14   18 1
    28   15   16 ar
    29   15   30 1
    30   16   17 ar
    31   17   31 1
@<TRIPOS>MOLECULE
ZINC57932067
   41    42     0     0     0
SMALL
USER_CHARGES

@<TRIPOS>ATOM
      1 C1         -0.0187    1.5258    0.0104 C.3       1 <0>        -0.1611
      2 C2          0.0021   -0.0041    0.0020 C.3       1 <0>         0.1473
      3 H1         -1.0200   -0.3827    0.0097 H         1 <0>         0.1210
      4 C3          0.7112   -0.4920   -1.2353 C.2       1 <0>         0.5196
      5 O1          0.0787   -0.6824   -2.2528 O.2       1 <0>        -0.5212
      6 N1          2.0383   -0.7184   -1.2248 N.am      1 <0>        -0.5309
      7 C4          2.7837   -0.5531   -0.0490 C.ar      1 <0>         0.1063
      8 C5          4.1681   -0.4962   -0.0916 C.ar      1 <0>        -0.1744
      9 C6          4.8890   -0.3376    1.0811 C.ar      1 <0>         0.0940
     10 C7          4.2278   -0.2355    2.3009 C.ar      1 <0>         0.1179
     11 C8          2.8427   -0.2904    2.3463 C.ar      1 <0>        -0.1945
     12 C9          2.1228   -0.4461    1.1751 C.ar      1 <0>         0.1736
     13 N2          0.7168   -0.4929    1.1906 N.pl3     1 <0>        -0.7509
     14 O2          4.9402   -0.0822    3.4498 O.3       1 <0>        -0.3021
     15 C10         4.1966    0.0160    4.6661 C.3       1 <0>         0.0255
     16 O3          6.2481   -0.2820    1.0395 O.3       1 <0>        -0.3024
     17 C11         6.8630   -0.3936   -0.2456 C.3       1 <0>         0.0251
     18 C12         2.7109   -1.1418   -2.4556 C.3       1 <0>         0.0733
     19 C13         3.1833    0.0912   -3.2286 C.3       1 <0>         0.0914
     20 H2          3.8782    0.6620   -2.6126 H         1 <0>         0.1062
     21 C14         3.8857   -0.3509   -4.5139 C.3       1 <0>         0.0459
     22 O4          4.4285    0.7923   -5.1775 O.3       1 <0>        -0.5612
     23 O5          2.0574    0.9074   -3.5576 O.3       1 <0>        -0.5421
     24 H3          1.0039    1.9031    0.0027 H         1 <0>         0.0628
     25 H4         -0.5459    1.8868   -0.8726 H         1 <0>         0.0750
     26 H5         -0.5289    1.8773    0.9072 H         1 <0>         0.0747
     27 H6          4.6839   -0.5757   -1.0371 H         1 <0>         0.1402
     28 H7          2.3279   -0.2120    3.2925 H         1 <0>         0.1440
     29 H8          0.2340   -0.8364    1.9586 H         1 <0>         0.4109
     30 H9          3.5314    0.8781    4.6167 H         1 <0>         0.0556
     31 H10         3.6071   -0.8902    4.8057 H         1 <0>         0.0550
     32 H11         4.8840    0.1350    5.5036 H         1 <0>         0.1016
     33 H12         7.9459   -0.3340   -0.1367 H         1 <0>         0.1023
     34 H13         6.5951   -1.3500   -0.6947 H         1 <0>         0.0527
     35 H14         6.5169    0.4179   -0.8857 H         1 <0>         0.0543
     36 H15         3.5697   -1.7643   -2.2046 H         1 <0>         0.0952
     37 H16         2.0159   -1.7125   -3.0715 H         1 <0>         0.1000
     38 H17         4.6899   -1.0445   -4.2684 H         1 <0>         0.0560
     39 H18         3.1677   -0.8444   -5.1690 H         1 <0>         0.0534
     40 H19         4.8895    0.5863   -6.0023 H         1 <0>         0.3821
     41 H20         1.3962    0.4630   -4.1057 H         1 <0>         0.3780
@<TRIPOS>BOND
     1    1    2 1
     2    1   24 1
     3    1   25 1
     4    1   26 1
     5    2    3 1
     6    2   13 1
     7    2    4 1
     8    4    5 2
     9    4    6 am
    10    6    7 1
    11    6   18 1
    12    7   12 ar
    13    7    8 ar
    14    8    9 ar
    15    8   27 1
    16    9   10 ar
    17    9   16 1
    18   10   11 ar
    19   10   14 1
    20   11   12 ar
    21   11   28 1
    22   12   13 1
    23   13   29 1
    24   14   15 1
    25   15   30 1
    26   15   31 1
    27   15   32 1
    28   16   17 1
    29   17   33 1
    30   17   34 1
    31   17   35 1
    32   18   19 1
    33   18   36 1
    34   18   37 1
    35   19   20 1
    36   19   21 1
    37   19   23 1
    38   21   22 1
    39   21   38 1
    40   21   39 1
    41   22   40 1
    42   23   41 1
@<TRIPOS>MOLECULE
ZINC66925392
   38    39     0     0     0
SMALL
USER_CHARGES

@<TRIPOS>ATOM
      1 C1         -0.0178    1.4608    0.0101 C.3       1 <0>         0.0975
      2 N1          0.0021   -0.0041    0.0020 N.pl3     1 <0>        -0.3724
      3 C2          0.0078   -0.7920   -1.0936 C.2       1 <0>         0.0811
      4 C3          0.0272   -2.0789   -0.6760 C.2       1 <0>        -0.2679
      5 C4          0.0335   -2.0775    0.7227 C.2       1 <0>         0.0655
      6 N2          0.0246   -0.8342    1.1302 N.2       1 <0>        -0.2936
      7 C5          0.0390   -3.2983   -1.5614 C.3       1 <0>         0.2180
      8 N3          1.4239   -3.6749   -1.8554 N.am      1 <0>        -0.7400
      9 C6          1.6805   -4.7438   -2.6352 C.2       1 <0>         0.7123
     10 O1          0.7626   -5.3955   -3.0947 O.2       1 <0>        -0.5688
     11 N4          2.9546   -5.0903   -2.9056 N.am      1 <0>        -0.5328
     12 N5          4.0122   -4.3394   -2.3762 N.am      1 <0>        -0.5314
     13 C7          5.2863   -4.6859   -2.6466 C.2       1 <0>         0.5172
     14 O2          5.5172   -5.6478   -3.3483 O.2       1 <0>        -0.5181
     15 C8          6.4239   -3.8782   -2.0771 C.3       1 <0>        -0.0905
     16 C9          7.7348   -4.4704   -2.5264 C.ar      1 <0>        -0.1089
     17 C10         8.3991   -5.3731   -1.7175 C.ar      1 <0>        -0.0760
     18 C11         9.6015   -5.9165   -2.1295 C.ar      1 <0>        -0.1288
     19 C12        10.1411   -5.5578   -3.3509 C.ar      1 <0>        -0.0853
     20 C13         9.4786   -4.6559   -4.1615 C.ar      1 <0>        -0.1533
     21 C14         8.2713   -4.1149   -3.7521 C.ar      1 <0>         0.1154
     22 F1          7.6203   -3.2366   -4.5459 F         1 <0>        -0.1373
     23 H1          1.0048    1.8381    0.0023 H         1 <0>         0.0781
     24 H2         -0.5450    1.8219   -0.8730 H         1 <0>         0.0902
     25 H3         -0.5280    1.8123    0.9069 H         1 <0>         0.0921
     26 H4         -0.0017   -0.4556   -2.1198 H         1 <0>         0.1774
     27 H5          0.0482   -2.9516    1.3568 H         1 <0>         0.1859
     28 H6         -0.4613   -4.1220   -1.0521 H         1 <0>         0.0795
     29 H7         -0.4826   -3.0763   -2.4924 H         1 <0>         0.0759
     30 H8          2.1562   -3.1550   -1.4888 H         1 <0>         0.3908
     31 H9          3.1393   -5.8596   -3.4669 H         1 <0>         0.4435
     32 H10         3.8275   -3.5701   -1.8149 H         1 <0>         0.4194
     33 H11         6.3506   -2.8491   -2.4287 H         1 <0>         0.1126
     34 H12         6.3720   -3.8947   -0.9884 H         1 <0>         0.1166
     35 H13         7.9787   -5.6537   -0.7631 H         1 <0>         0.1327
     36 H14        10.1200   -6.6214   -1.4966 H         1 <0>         0.1320
     37 H15        11.0809   -5.9825   -3.6714 H         1 <0>         0.1343
     38 H16         9.9004   -4.3757   -5.1154 H         1 <0>         0.1369
@<TRIPOS>BOND
     1    1    2 1
     2    1   23 1
     3    1   24 1
     4    1   25 1
     5    2    6 1
     6    2    3 1
     7    3    4 2
     8    3   26 1
     9    4    5 1
    10    4    7 1
    11    5    6 2
    12    5   27 1
    13    7    8 1
    14    7   28 1
    15    7   29 1
    16    8    9 am
    17    8   30 1
    18    9   10 2
    19    9   11 am
    20   11   12 1
    21   11   31 1
    22   12   13 am
    23   12   32 1
    24   13   14 2
    25   13   15 1
    26   15   16 1
    27   15   33 1
    28   15   34 1
    29   16   21 ar
    30   16   17 ar
    31   17   18 ar
    32   17   35 1
    33   18   19 ar
    34   18   36 1
    35   19   20 ar
    36   19   37 1
    37   20   21 ar
    38   20   38 1
    39   21   22 1
@<TRIPOS>MOLECULE
ZINC35651796
   35    36     0     0     0
SMALL
USER_CHARGES

@<TRIPOS>ATOM
      1 C1         -0.0184    1.5028    0.0103 C.3       1 <0>        -0.1262
      2 C2          0.0021   -0.0041    0.0020 C.ar      1 <0>        -0.0666
      3 C3          0.0057   -0.6888   -1.1991 C.ar      1 <0>        -0.1247
      4 C4          0.0245   -2.0707   -1.2067 C.ar      1 <0>        -0.1124
      5 C5          0.0400   -2.7685   -0.0132 C.ar      1 <0>        -0.1294
      6 C6          0.0373   -2.0840    1.1875 C.ar      1 <0>        -0.0971
      7 C7          0.0229   -0.7015    1.1951 C.ar      1 <0>        -0.0977
      8 C8          0.0252    0.0449    2.5043 C.3       1 <0>         0.1589
      9 N1         -1.3380    0.4767    2.8227 N.pl3     1 <0>        -1.1175
     10 S1         -1.7089    0.9857    4.3542 S.o2      1 <0>         2.7310
     11 O1         -3.0803    1.3577    4.3377 O.2       1 <0>        -0.9710
     12 O2         -1.1968    0.0032    5.2439 O.2       1 <0>        -0.9645
     13 C9         -0.7907    2.4603    4.6498 C.2       1 <0>        -0.8280
     14 C10         0.4958    2.5335    5.1937 C.2       1 <0>         0.1007
     15 N2          0.8411    3.7938    5.2584 N.2       1 <0>        -0.2449
     16 N3         -0.2164    4.5636    4.7568 N.pl3     1 <0>        -0.3049
     17 C11        -1.2033    3.7215    4.3852 C.2       1 <0>         0.1608
     18 C12        -0.2438    6.0244    4.6494 C.3       1 <0>         0.0416
     19 C13         0.0413    6.6328    5.9983 C.2       1 <0>         0.4885
     20 O3          0.2482    5.9128    6.9603 O.co2     1 <0>        -0.6607
     21 O4          0.0650    7.8449    6.1277 O.co2     1 <0>        -0.6881
     22 H1          1.0042    1.8801    0.0026 H         1 <0>         0.0734
     23 H2         -0.5455    1.8639   -0.8728 H         1 <0>         0.0669
     24 H3         -0.5286    1.8543    0.9071 H         1 <0>         0.0760
     25 H4         -0.0064   -0.1437   -2.1314 H         1 <0>         0.1216
     26 H5          0.0266   -2.6056   -2.1449 H         1 <0>         0.1204
     27 H6          0.0540   -3.8484   -0.0191 H         1 <0>         0.1220
     28 H7          0.0491   -2.6290    2.1199 H         1 <0>         0.1271
     29 H8          0.3931   -0.6092    3.2948 H         1 <0>         0.0890
     30 H9          0.6733    0.9176    2.4238 H         1 <0>         0.0773
     31 H10        -2.0234    0.4644    2.1364 H         1 <0>         0.4157
     32 H11         1.0998    1.6946    5.5064 H         1 <0>         0.1887
     33 H12        -2.1533    4.0039    3.9560 H         1 <0>         0.1826
     34 H13         0.5134    6.3505    3.9364 H         1 <0>         0.0921
     35 H14        -1.2276    6.3451    4.3067 H         1 <0>         0.0996
@<TRIPOS>BOND
     1    1    2 1
     2    1   22 1
     3    1   23 1
     4    1   24 1
     5    2    7 ar
     6    2    3 ar
     7    3    4 ar
     8    3   25 1
     9    4    5 ar
    10    4   26 1
    11    5    6 ar
    12    5   27 1
    13    6    7 ar
    14    6   28 1
    15    7    8 1
    16    8    9 1
    17    8   29 1
    18    8   30 1
    19    9   10 1
    20    9   31 1
    21   10   11 2
    22   10   12 2
    23   10   13 1
    24   13   17 2
    25   13   14 1
    26   14   15 2
    27   14   32 1
    28   15   16 1
    29   16   17 1
    30   16   18 1
    31   17   33 1
    32   18   19 1
    33   18   34 1
    34   18   35 1
    35   19   20 2
    36   19   21 1
@<TRIPOS>MOLECULE
ZINC37669215
   35    35     0     0     0
SMALL
USER_CHARGES

@<TRIPOS>ATOM
      1 C1          0.0802    1.4354   -0.1032 C.3       1 <0>        -0.1468
      2 C2          0.0770   -0.0946   -0.0955 C.3       1 <0>        -0.1342
      3 C3         -1.3663   -0.6015   -0.0675 C.3       1 <0>        -0.0968
      4 C4         -1.3694   -2.1315   -0.0599 C.3       1 <0>         0.1009
      5 C5         -0.6273   -2.6368    1.1790 C.3       1 <0>        -0.1414
      6 C6         -0.6818   -2.6414   -1.3001 C.2       1 <0>         0.5058
      7 O1          0.4825   -2.3504   -1.5150 O.co2     1 <0>        -0.6871
      8 O2         -1.2898   -3.3451   -2.0886 O.co2     1 <0>        -0.6802
      9 N1         -2.7514   -2.6169   -0.0331 N.am      1 <0>        -0.6932
     10 C7         -3.0003   -3.9414   -0.0221 C.2       1 <0>         0.5574
     11 O3         -2.0782   -4.7332   -0.0344 O.2       1 <0>        -0.4698
     12 C8         -4.3951   -4.4312    0.0049 C.ar      1 <0>        -0.0140
     13 C9         -5.3016   -4.0188   -0.9730 C.ar      1 <0>        -0.1258
     14 C10        -6.6034   -4.4809   -0.9420 C.ar      1 <0>         0.1505
     15 C11        -7.0081   -5.3513    0.0577 C.ar      1 <0>        -0.1489
     16 C12        -6.1131   -5.7625    1.0286 C.ar      1 <0>        -0.0303
     17 C13        -4.8089   -5.3124    1.0048 C.ar      1 <0>        -0.0338
     18 N2         -3.8518   -5.7586    2.0421 N.pl3     1 <0>         0.0283
     19 O4         -4.1769   -6.6072    2.8395 O.2       1 <0>        -0.1789
     20 O5         -2.7451   -5.2746    2.0917 O.3       1 <0>        -0.1012
     21 F1         -7.4830   -4.0834   -1.8872 F         1 <0>        -0.1198
     22 H1          1.1084    1.7965   -0.1231 H         1 <0>         0.0485
     23 H2         -0.4485    1.7954   -0.9858 H         1 <0>         0.0461
     24 H3         -0.4172    1.8043    0.7939 H         1 <0>         0.0411
     25 H4          0.5744   -0.4634   -0.9925 H         1 <0>         0.1089
     26 H5          0.6057   -0.4546    0.7871 H         1 <0>         0.0585
     27 H6         -1.8636   -0.2326    0.8295 H         1 <0>         0.0481
     28 H7         -1.8949   -0.2415   -0.9502 H         1 <0>         0.0542
     29 H8         -1.1247   -2.2679    2.0761 H         1 <0>         0.0361
     30 H9         -0.6296   -3.7268    1.1845 H         1 <0>         0.0753
     31 H10         0.4009   -2.2756    1.1591 H         1 <0>         0.0659
     32 H11        -3.4873   -1.9850   -0.0233 H         1 <0>         0.3837
     33 H12        -4.9864   -3.3400   -1.7516 H         1 <0>         0.1670
     34 H13        -8.0267   -5.7097    0.0789 H         1 <0>         0.1604
     35 H14        -6.4348   -6.4406    1.8052 H         1 <0>         0.1655
@<TRIPOS>BOND
     1    1    2 1
     2    1   22 1
     3    1   23 1
     4    1   24 1
     5    2    3 1
     6    2   25 1
     7    2   26 1
     8    3    4 1
     9    3   27 1
    10    3   28 1
    11    4    5 1
    12    4    6 1
    13    4    9 1
    14    5   29 1
    15    5   30 1
    16    5   31 1
    17    6    7 2
    18    6    8 1
    19    9   10 am
    20    9   32 1
    21   10   11 2
    22   10   12 1
    23   12   17 ar
    24   12   13 ar
    25   13   14 ar
    26   13   33 1
    27   14   15 ar
    28   14   21 1
    29   15   16 ar
    30   15   34 1
    31   16   17 ar
    32   16   35 1
    33   17   18 1
    34   18   19 2
    35   18   20 1
@<TRIPOS>MOLECULE
ZINC48971054
   36    37     0     0     0
SMALL
USER_CHARGES

@<TRIPOS>ATOM
      1 C1         -0.0187    1.5258    0.0104 C.3       1 <0>        -0.1751
      2 C2          0.0021   -0.0041    0.0020 C.3       1 <0>         0.1038
      3 N1          0.6878   -0.4765   -1.2033 N.am      1 <0>        -0.6248
      4 C3          2.1353   -0.7012   -1.1821 C.3       1 <0>         0.2187
      5 C4          2.4170   -2.1231   -0.7698 C.2       1 <0>        -0.1565
      6 C5          2.5504   -3.2264   -1.5458 C.2       1 <0>        -0.1346
      7 C6          2.8115   -4.4425   -0.9428 C.2       1 <0>        -0.1538
      8 C7          2.9264   -4.4958    0.4067 C.2       1 <0>        -0.1746
      9 S1          2.6692   -2.7901    0.8669 S.3       1 <0>         0.0167
     10 C8         -0.0130   -0.7045   -2.3317 C.2       1 <0>         0.7102
     11 O1          0.5561   -1.0966   -3.3322 O.2       1 <0>        -0.5713
     12 N2         -1.3447   -0.4978   -2.3513 N.am      1 <0>        -0.6494
     13 C9         -2.0771   -0.7360   -3.5305 C.2       1 <0>        -0.0051
     14 C10        -1.5546   -1.1929   -4.7490 C.2       1 <0>         0.0248
     15 N3         -2.5374   -1.2926   -5.6070 N.2       1 <0>        -0.2423
     16 N4         -3.7218   -0.9035   -4.9684 N.pl3     1 <0>        -0.3221
     17 C11        -3.4150   -0.5698   -3.6878 C.2       1 <0>         0.0049
     18 C12        -5.0558   -0.8682   -5.5727 C.3       1 <0>         0.0599
     19 C13        -5.0203   -0.0224   -6.8195 C.2       1 <0>         0.4869
     20 O2         -3.9773    0.5023   -7.1707 O.co2     1 <0>        -0.6615
     21 O3         -6.0346    0.1372   -7.4770 O.co2     1 <0>        -0.6957
     22 H1          1.0039    1.9031    0.0027 H         1 <0>         0.0610
     23 H2         -0.5459    1.8868   -0.8726 H         1 <0>         0.0620
     24 H3         -0.5289    1.8773    0.9072 H         1 <0>         0.0684
     25 H4          0.5293   -0.3651    0.8851 H         1 <0>         0.0810
     26 H5         -1.0205   -0.3814    0.0098 H         1 <0>         0.0746
     27 H6          2.5453   -0.5232   -2.1762 H         1 <0>         0.1106
     28 H7          2.5986   -0.0180   -0.4703 H         1 <0>         0.0915
     29 H8          2.4538   -3.1564   -2.6192 H         1 <0>         0.1399
     30 H9          2.9219   -5.3368   -1.5380 H         1 <0>         0.1325
     31 H10         3.1258   -5.3482    1.0392 H         1 <0>         0.1828
     32 H11        -1.7987   -0.1850   -1.5532 H         1 <0>         0.3997
     33 H12        -0.5178   -1.4228   -4.9458 H         1 <0>         0.1968
     34 H13        -4.1090   -0.2312   -2.9328 H         1 <0>         0.1653
     35 H14        -5.3652   -1.8813   -5.8296 H         1 <0>         0.0831
     36 H15        -5.7647   -0.4406   -4.8637 H         1 <0>         0.0916
@<TRIPOS>BOND
     1    1    2 1
     2    1   22 1
     3    1   23 1
     4    1   24 1
     5    2    3 1
     6    2   25 1
     7    2   26 1
     8    3    4 1
     9    3   10 am
    10    4    5 1
    11    4   27 1
    12    4   28 1
    13    5    9 1
    14    5    6 2
    15    6    7 1
    16    6   29 1
    17    7    8 2
    18    7   30 1
    19    8    9 1
    20    8   31 1
    21   10   11 2
    22   10   12 am
    23   12   13 1
    24   12   32 1
    25   13   17 2
    26   13   14 1
    27   14   15 2
    28   14   33 1
    29   15   16 1
    30   16   17 1
    31   16   18 1
    32   17   34 1
    33   18   19 1
    34   18   35 1
    35   18   36 1
    36   19   20 2
    37   19   21 1
@<TRIPOS>MOLECULE
ZINC54156629
   33    33     0     0     0
SMALL
USER_CHARGES

@<TRIPOS>ATOM
      1 C1         -0.0187    1.5258    0.0104 C.3       1 <0>        -0.1577
      2 C2          0.0021   -0.0041    0.0020 C.3       1 <0>         0.0955
      3 N1          0.7106   -0.4894    1.1889 N.pl3     1 <0>        -0.3953
      4 C3          2.0171   -0.8184    1.2442 C.2       1 <0>         0.0902
      5 C4          2.3180   -1.2237    2.5026 C.2       1 <0>        -0.7579
      6 C5          1.1526   -1.1458    3.2683 C.2       1 <0>        -0.0892
      7 C6          0.1535   -0.6794    2.4350 C.2       1 <0>        -0.0314
      8 C7         -1.2388   -0.4358    2.8062 C.2       1 <0>         0.5471
      9 O1         -2.0324   -0.0223    1.9697 O.co2     1 <0>        -0.6880
     10 O2         -1.6123   -0.6450    3.9539 O.co2     1 <0>        -0.6713
     11 S1          3.8989   -1.7551    3.0710 S.o2      1 <0>         2.7264
     12 O3          3.6665   -2.5832    4.2021 O.2       1 <0>        -0.9638
     13 O4          4.6101   -2.2092    1.9276 O.2       1 <0>        -0.9749
     14 N2          4.6972   -0.4133    3.6229 N.pl3     1 <0>        -1.1202
     15 C8          4.1912    0.3113    4.7913 C.3       1 <0>         0.1237
     16 C9          5.2760    1.2540    5.3160 C.3       1 <0>         0.0012
     17 H1          6.1846    0.6863    5.5167 H         1 <0>         0.1231
     18 C10         5.5677    2.3296    4.2678 C.3       1 <0>        -0.1489
     19 C11         4.8121    1.8926    6.5585 C.1       1 <0>         0.2105
     20 N3          4.4540    2.3855    7.5173 N.1       1 <0>        -0.4246
     21 H2          1.0039    1.9031    0.0027 H         1 <0>         0.0493
     22 H3         -0.5459    1.8868   -0.8726 H         1 <0>         0.0692
     23 H4         -0.5289    1.8773    0.9072 H         1 <0>         0.0736
     24 H5         -1.0205   -0.3814    0.0098 H         1 <0>         0.1145
     25 H6          0.5123   -0.3556   -0.8948 H         1 <0>         0.0781
     26 H7          2.7120   -0.7673    0.4190 H         1 <0>         0.1692
     27 H8          1.0522   -1.3982    4.3136 H         1 <0>         0.1486
     28 H9          5.4999   -0.1070    3.1725 H         1 <0>         0.4145
     29 H10         3.3128    0.8907    4.5070 H         1 <0>         0.0820
     30 H11         3.9202   -0.4006    5.5709 H         1 <0>         0.0917
     31 H12         6.3405    3.0012    4.6416 H         1 <0>         0.0668
     32 H13         5.9112    1.8567    3.3478 H         1 <0>         0.0786
     33 H14         4.6591    2.8973    4.0672 H         1 <0>         0.0696
@<TRIPOS>BOND
     1    1    2 1
     2    1   21 1
     3    1   22 1
     4    1   23 1
     5    2    3 1
     6    2   24 1
     7    2   25 1
     8    3    7 1
     9    3    4 1
    10    4    5 2
    11    4   26 1
    12    5    6 1
    13    5   11 1
    14    6    7 2
    15    6   27 1
    16    7    8 1
    17    8    9 2
    18    8   10 1
    19   11   12 2
    20   11   13 2
    21   11   14 1
    22   14   15 1
    23   14   28 1
    24   15   16 1
    25   15   29 1
    26   15   30 1
    27   16   17 1
    28   16   18 1
    29   16   19 1
    30   18   31 1
    31   18   32 1
    32   18   33 1
    33   19   20 3
@<TRIPOS>MOLECULE
ZINC62876268
   41    41     0     0     0
SMALL
USER_CHARGES

@<TRIPOS>ATOM
      1 C1         -0.0117    1.5256    0.0057 C.3       1 <0>        -0.1519
      2 C2          0.0083   -0.0042   -0.0021 C.3       1 <0>         0.0590
      3 O1          0.6982   -0.4776    1.1564 O.3       1 <0>        -0.3547
      4 C3          0.8048   -1.8078    1.3011 C.2       1 <0>         0.4669
      5 O2          0.3282   -2.5458    0.4717 O.2       1 <0>        -0.4978
      6 C4          1.5190   -2.3806    2.4981 C.3       1 <0>        -0.1252
      7 C5          1.4983   -3.9086    2.4213 C.3       1 <0>         0.1499
      8 N1          2.1926   -4.4655    3.5849 N.am      1 <0>        -0.7550
      9 C6          2.2996   -5.8011    3.7302 C.2       1 <0>         0.7063
     10 O3          1.7419   -6.5445    2.9463 O.2       1 <0>        -0.5843
     11 N2          3.0249   -6.3126    4.7445 N.am      1 <0>        -0.6220
     12 C7          3.6078   -5.4324    5.7663 C.3       1 <0>         0.1142
     13 C8          5.1093   -5.7195    5.8661 C.3       1 <0>        -0.1379
     14 C9          5.3229   -7.2124    6.1266 C.3       1 <0>        -0.0886
     15 C10         4.7527   -8.0222    4.9598 C.3       1 <0>        -0.1431
     16 C11         3.2425   -7.7616    4.8529 C.3       1 <0>         0.1590
     17 C12         5.4407   -7.5993    3.6603 C.3       1 <0>        -0.1145
     18 C13         4.9923   -9.4902    5.2019 C.2       1 <0>         0.5058
     19 O4          4.2128  -10.3163    4.7586 O.co2     1 <0>        -0.6932
     20 O5          5.9656   -9.8518    5.8410 O.co2     1 <0>        -0.6949
     21 H1          1.0111    1.9024   -0.0012 H         1 <0>         0.0666
     22 H2         -0.5379    1.8866   -0.8779 H         1 <0>         0.0791
     23 H3         -0.5225    1.8777    0.9020 H         1 <0>         0.0664
     24 H4         -1.0145   -0.3810    0.0049 H         1 <0>         0.0683
     25 H5          0.5191   -0.3563   -0.8983 H         1 <0>         0.0684
     26 H6          2.5514   -2.0312    2.5068 H         1 <0>         0.1133
     27 H7          1.0178   -2.0559    3.4100 H         1 <0>         0.1130
     28 H8          0.4659   -4.2580    2.4126 H         1 <0>         0.0760
     29 H9          1.9995   -4.2333    1.5094 H         1 <0>         0.0749
     30 H10         2.5752   -3.8729    4.2508 H         1 <0>         0.3933
     31 H11         3.4529   -4.3912    5.4832 H         1 <0>         0.0664
     32 H12         3.1341   -5.6258    6.7287 H         1 <0>         0.0664
     33 H13         5.5960   -5.4399    4.9318 H         1 <0>         0.0665
     34 H14         5.5363   -5.1424    6.6863 H         1 <0>         0.0664
     35 H15         6.3895   -7.4153    6.2225 H         1 <0>         0.0699
     36 H16         4.8151   -7.4965    7.0482 H         1 <0>         0.0541
     37 H17         2.7396   -8.1412    5.7423 H         1 <0>         0.0589
     38 H18         2.8466   -8.2578    3.9668 H         1 <0>         0.0964
     39 H19         6.5122   -7.7825    3.7401 H         1 <0>         0.0479
     40 H20         5.0343   -8.1763    2.8296 H         1 <0>         0.0484
     41 H21         5.2657   -6.5378    3.4853 H         1 <0>         0.0414
@<TRIPOS>BOND
     1    1    2 1
     2    1   21 1
     3    1   22 1
     4    1   23 1
     5    2    3 1
     6    2   24 1
     7    2   25 1
     8    3    4 1
     9    4    5 2
    10    4    6 1
    11    6    7 1
    12    6   26 1
    13    6   27 1
    14    7    8 1
    15    7   28 1
    16    7   29 1
    17    8    9 am
    18    8   30 1
    19    9   10 2
    20    9   11 am
    21   11   16 1
    22   11   12 1
    23   12   13 1
    24   12   31 1
    25   12   32 1
    26   13   14 1
    27   13   33 1
    28   13   34 1
    29   14   15 1
    30   14   35 1
    31   14   36 1
    32   15   16 1
    33   15   17 1
    34   15   18 1
    35   16   37 1
    36   16   38 1
    37   17   39 1
    38   17   40 1
    39   17   41 1
    40   18   19 2
    41   18   20 1
@<TRIPOS>MOLECULE
ZINC06015145
   45    46     0     0     0
SMALL
USER_CHARGES
4-hydroxy-N-(3-isopropoxypropyl)-2-oxo-5,6,7,8-tetrahydro-1H-quinoline-3-carboxamide
@<TRIPOS>ATOM
      1 C1          7.7961    0.8231   -1.1655 C.3       1 <0>        -0.1755
      2 C2          7.3215    1.2688    0.2191 C.3       1 <0>         0.0798
      3 C3          8.3566    2.2132    0.8334 C.3       1 <0>        -0.1495
      4 O1          6.0699    1.9476    0.0980 O.3       1 <0>        -0.3882
      5 C4          4.9314    1.0899    0.1980 C.3       1 <0>         0.0665
      6 C5          3.6537    1.9194    0.0549 C.3       1 <0>        -0.1269
      7 C6          2.4347    1.0010    0.1619 C.3       1 <0>         0.1295
      8 N1          1.2114    1.7952    0.0249 N.am      1 <0>        -0.7381
      9 C7          0.0069    1.1937    0.0871 C.2       1 <0>         0.6463
     10 O2         -0.0645   -0.0185    0.1656 O.2       1 <0>        -0.5764
     11 C8         -1.2185    2.0002    0.0540 C.2       1 <0>        -0.4865
     12 C9         -1.7082    2.5117   -1.1533 C.2       1 <0>         0.3511
     13 C10        -2.8934    3.2781   -1.1534 C.2       1 <0>        -0.2176
     14 C11        -3.5382    3.5145    0.0062 C.2       1 <0>         0.1563
     15 N2         -3.0518    3.0219    1.1844 N.am      1 <0>        -0.6497
     16 H1         -3.5822    3.2254    2.1263 H         1 <0>         0.4119
     17 C12        -1.9319    2.2854    1.2435 C.2       1 <0>         0.5543
     18 O3         -1.5312    1.8638    2.3149 O.2       1 <0>        -0.6080
     19 C13        -4.8155    4.3139    0.0777 C.3       1 <0>        -0.0837
     20 C14        -5.0024    5.1498   -1.1860 C.3       1 <0>        -0.1140
     21 C15        -4.8370    4.2272   -2.4001 C.3       1 <0>        -0.1229
     22 C16        -3.3717    3.8054   -2.4812 C.3       1 <0>        -0.0409
     23 O4         -1.0541    2.2689   -2.3108 O.3       1 <0>        -0.6767
     24 H2          7.0519    0.1441   -1.6072 H         1 <0>         0.0578
     25 H3          8.7595    0.3005   -1.0722 H         1 <0>         0.0633
     26 H4          7.9181    1.7043   -1.8125 H         1 <0>         0.0646
     27 H5          7.1321    0.4049    0.8731 H         1 <0>         0.0583
     28 H6          8.0154    2.5336    1.8288 H         1 <0>         0.0612
     29 H7          8.4786    3.0944    0.1864 H         1 <0>         0.0641
     30 H8          9.3200    1.6906    0.9267 H         1 <0>         0.0675
     31 H9          4.9698    0.3349   -0.6011 H         1 <0>         0.0506
     32 H10         4.9351    0.5882    1.1769 H         1 <0>         0.0507
     33 H11         3.6153    2.6743    0.8540 H         1 <0>         0.0753
     34 H12         3.6500    2.4211   -0.9240 H         1 <0>         0.0770
     35 H13         2.4732    0.2461   -0.6372 H         1 <0>         0.0567
     36 H14         2.4384    0.4992    1.1408 H         1 <0>         0.0556
     37 H15         1.2759    2.8825   -0.1287 H         1 <0>         0.4130
     38 H16        -5.6708    3.6299    0.1804 H         1 <0>         0.0799
     39 H17        -4.7783    4.9876    0.9465 H         1 <0>         0.0750
     40 H18        -6.0077    5.5964   -1.1849 H         1 <0>         0.0648
     41 H19        -4.2465    5.9485   -1.2125 H         1 <0>         0.0669
     42 H20        -5.4793    3.3425   -2.2785 H         1 <0>         0.0614
     43 H21        -5.1263    4.7676   -3.3134 H         1 <0>         0.0617
     44 H22        -2.7666    4.6779   -2.7687 H         1 <0>         0.0607
     45 H23        -3.2700    3.0208   -3.2455 H         1 <0>         0.0730
@<TRIPOS>BOND
     1    1    2 1
     2    1   24 1
     3    1   25 1
     4    1   26 1
     5    2    3 1
     6    2    4 1
     7    2   27 1
     8    3   28 1
     9    3   29 1
    10    3   30 1
    11    4    5 1
    12    5    6 1
    13    5   31 1
    14    5   32 1
    15    6    7 1
    16    6   33 1
    17    6   34 1
    18    7    8 1
    19    7   35 1
    20    7   36 1
    21    8    9 am
    22    8   37 1
    23    9   10 2
    24    9   11 1
    25   11   17 1
    26   11   12 2
    27   12   13 1
    28   12   23 1
    29   13   22 1
    30   13   14 2
    31   14   15 1
    32   14   19 1
    33   15   16 1
    34   15   17 am
    35   17   18 2
    36   19   20 1
    37   19   38 1
    38   19   39 1
    39   20   21 1
    40   20   40 1
    41   20   41 1
    42   21   22 1
    43   21   42 1
    44   21   43 1
    45   22   44 1
    46   22   45 1
@<TRIPOS>MOLECULE
ZINC05844540
   44    45     0     0     0
SMALL
USER_CHARGES
N'-butanoyl-4-hydroxy-2-oxo-1-propyl-quinoline-3-carbohydrazide
@<TRIPOS>ATOM
      1 C1         -0.0737   13.7120    3.6996 C.3       1 <0>        -0.1531
      2 C2          0.0279   12.1854    3.7087 C.3       1 <0>        -0.1085
      3 C3          0.3568   11.6878    2.2998 C.3       1 <0>        -0.1308
      4 C4          0.4568   10.1841    2.3087 C.2       1 <0>         0.5039
      5 O1          0.2823    9.5709    3.3404 O.2       1 <0>        -0.5595
      6 N1          0.7403    9.5208    1.1702 N.am      1 <0>        -0.5278
      7 N2          0.8333    8.1230    1.1785 N.am      1 <0>        -0.5321
      8 C5          1.1168    7.4597    0.0401 C.2       1 <0>         0.6483
      9 O2          1.3836    8.0775   -0.9737 O.2       1 <0>        -0.5750
     10 C6          1.1036    5.9917    0.0230 C.2       1 <0>        -0.4865
     11 C7         -0.1066    5.2941    0.0187 C.2       1 <0>         0.3625
     12 C8         -0.0633    3.8282    0.0020 C.ar      1 <0>        -0.1482
     13 C9         -1.2467    3.0807   -0.0025 C.ar      1 <0>        -0.0334
     14 C10        -1.1882    1.7163   -0.0239 C.ar      1 <0>        -0.1780
     15 C11         0.0370    1.0638   -0.0295 C.ar      1 <0>        -0.0758
     16 C12         1.2142    1.7797   -0.0248 C.ar      1 <0>        -0.1878
     17 C13         1.1800    3.1717   -0.0090 C.ar      1 <0>         0.2059
     18 N3          2.3548    3.8952   -0.0048 N.pl3     1 <0>        -0.5383
     19 C14         2.3572    5.2389    0.0108 C.2       1 <0>         0.5746
     20 O3          3.4179    5.8379    0.0144 O.3       1 <0>        -0.5768
     21 C15         3.6331    3.1798   -0.0171 C.3       1 <0>         0.1012
     22 C16         4.0734    2.9470   -1.4638 C.3       1 <0>        -0.1412
     23 C17         5.4084    2.1998   -1.4766 C.3       1 <0>        -0.1462
     24 O4         -1.2847    5.9518    0.0292 O.2       1 <0>        -0.6518
     25 H1         -0.3102   14.0698    4.7126 H         1 <0>         0.0560
     26 H2         -0.8691   14.0224    3.0061 H         1 <0>         0.0544
     27 H3          0.8852   14.1413    3.3736 H         1 <0>         0.0540
     28 H4          0.8233   11.8750    4.4022 H         1 <0>         0.0694
     29 H5         -0.9309   11.7560    4.0347 H         1 <0>         0.0701
     30 H6         -0.4386   11.9983    1.6063 H         1 <0>         0.0941
     31 H7          1.3157   12.1171    1.9738 H         1 <0>         0.0936
     32 H8          0.8987   10.0770    0.2345 H         1 <0>         0.4484
     33 H9          0.6749    7.5668    2.1142 H         1 <0>         0.4480
     34 H10        -2.2035    3.5815    0.0055 H         1 <0>         0.1324
     35 H11        -2.1020    1.1407   -0.0318 H         1 <0>         0.1181
     36 H12         0.0678   -0.0157   -0.0421 H         1 <0>         0.1192
     37 H13         2.1620    1.2621   -0.0331 H         1 <0>         0.1258
     38 H14         4.3934    3.7786    0.5057 H         1 <0>         0.0913
     39 H15         3.5161    2.2112    0.4910 H         1 <0>         0.0796
     40 H16         3.3130    2.3482   -1.9866 H         1 <0>         0.0641
     41 H17         4.1904    3.9156   -1.9719 H         1 <0>         0.0711
     42 H18         5.7249    2.0324   -2.5167 H         1 <0>         0.0553
     43 H19         5.2913    1.2312   -0.9686 H         1 <0>         0.0531
     44 H20         6.1687    2.7986   -0.9537 H         1 <0>         0.0563
@<TRIPOS>BOND
     1    1    2 1
     2    1   25 1
     3    1   26 1
     4    1   27 1
     5    2    3 1
     6    2   28 1
     7    2   29 1
     8    3    4 1
     9    3   30 1
    10    3   31 1
    11    4    5 2
    12    4    6 am
    13    6    7 1
    14    6   32 1
    15    7    8 am
    16    7   33 1
    17    8    9 2
    18    8   10 1
    19   10   19 2
    20   10   11 1
    21   11   12 1
    22   11   24 2
    23   12   17 ar
    24   12   13 ar
    25   13   14 ar
    26   13   34 1
    27   14   15 ar
    28   14   35 1
    29   15   16 ar
    30   15   36 1
    31   16   17 ar
    32   16   37 1
    33   17   18 1
    34   18   19 1
    35   18   21 1
    36   19   20 1
    37   21   22 1
    38   21   38 1
    39   21   39 1
    40   22   23 1
    41   22   40 1
    42   22   41 1
    43   23   42 1
    44   23   43 1
    45   23   44 1
@<TRIPOS>MOLECULE
ZINC41285908
   44    45     0     0     0
SMALL
USER_CHARGES

@<TRIPOS>ATOM
      1 C1         -1.1989   -0.8124   -0.2604 C.3       1 <0>        -0.1486
      2 C2          0.0205    0.0678    0.0210 C.3       1 <0>        -0.0813
      3 C3          0.7444   -0.4508    1.2368 C.ar      1 <0>        -0.1076
      4 C4          0.4015    0.0128    2.4938 C.ar      1 <0>        -0.0803
      5 C5          1.0627   -0.4602    3.6101 C.ar      1 <0>        -0.1577
      6 C6          2.0735   -1.4028    3.4692 C.ar      1 <0>         0.1666
      7 C7          2.4155   -1.8663    2.2050 C.ar      1 <0>        -0.1441
      8 C8          1.7462   -1.3932    1.0935 C.ar      1 <0>        -0.0847
      9 N1          2.7451   -1.8833    4.5966 N.pl3     1 <0>        -0.6212
     10 C9          2.0652   -2.0369    5.7957 C.2       1 <0>         0.2976
     11 N2          2.5499   -2.3654    6.9745 N.2       1 <0>        -0.5393
     12 C10         1.7627   -2.4709    8.0300 C.2       1 <0>         0.1294
     13 C11         0.4434   -2.2266    7.8416 C.2       1 <0>        -0.2683
     14 S1          0.4213   -1.8416    6.0983 S.3       1 <0>         0.0952
     15 C12         2.3079   -2.8468    9.3837 C.3       1 <0>        -0.0685
     16 C13         3.0660   -4.1449    9.2772 C.2       1 <0>         0.5131
     17 O1          3.1548   -4.7092    8.2074 O.2       1 <0>        -0.5288
     18 N3          3.6452   -4.6787   10.3708 N.am      1 <0>        -0.6982
     19 C14         4.3822   -5.9406   10.2673 C.3       1 <0>         0.0784
     20 H1          4.8864   -5.9887    9.3021 H         1 <0>         0.0792
     21 C15         5.4195   -6.0189   11.3892 C.3       1 <0>        -0.1157
     22 C16         6.4670   -4.9211   11.1927 C.3       1 <0>        -0.1454
     23 C17         3.4213   -7.0950   10.3901 C.2       1 <0>         0.4907
     24 O2          3.6570   -8.1475    9.8216 O.co2     1 <0>        -0.6971
     25 O3          2.4082   -6.9765   11.0580 O.co2     1 <0>        -0.6934
     26 H2         -1.8694   -0.7898    0.5987 H         1 <0>         0.0566
     27 H3         -1.7225   -0.4374   -1.1398 H         1 <0>         0.0562
     28 H4         -0.8737   -1.8370   -0.4407 H         1 <0>         0.0560
     29 H5          0.6910    0.0452   -0.8381 H         1 <0>         0.0703
     30 H6         -0.3047    1.0924    0.2013 H         1 <0>         0.0706
     31 H7         -0.3842    0.7459    2.6025 H         1 <0>         0.1272
     32 H8          0.7947   -0.0975    4.5914 H         1 <0>         0.1317
     33 H9          3.2007   -2.5991    2.0920 H         1 <0>         0.1293
     34 H10         2.0083   -1.7567    0.1109 H         1 <0>         0.1271
     35 H11         3.6867   -2.1093    4.5406 H         1 <0>         0.4232
     36 H12        -0.3702   -2.2537    8.5513 H         1 <0>         0.1945
     37 H13         2.9779   -2.0626    9.7361 H         1 <0>         0.1030
     38 H14         1.4838   -2.9640   10.0875 H         1 <0>         0.1086
     39 H15         3.5742   -4.2273   11.2265 H         1 <0>         0.3900
     40 H16         4.9255   -5.8817   12.3511 H         1 <0>         0.0632
     41 H17         5.9063   -6.9939   11.3665 H         1 <0>         0.0734
     42 H18         7.2061   -4.9769   11.9920 H         1 <0>         0.0480
     43 H19         6.9611   -5.0583   10.2308 H         1 <0>         0.0506
     44 H20         5.9802   -3.9461   11.2154 H         1 <0>         0.0502
@<TRIPOS>BOND
     1    1    2 1
     2    1   26 1
     3    1   27 1
     4    1   28 1
     5    2    3 1
     6    2   29 1
     7    2   30 1
     8    3    8 ar
     9    3    4 ar
    10    4    5 ar
    11    4   31 1
    12    5    6 ar
    13    5   32 1
    14    6    7 ar
    15    6    9 1
    16    7    8 ar
    17    7   33 1
    18    8   34 1
    19    9   10 1
    20    9   35 1
    21   10   14 1
    22   10   11 2
    23   11   12 1
    24   12   13 2
    25   12   15 1
    26   13   14 1
    27   13   36 1
    28   15   16 1
    29   15   37 1
    30   15   38 1
    31   16   17 2
    32   16   18 am
    33   18   19 1
    34   18   39 1
    35   19   20 1
    36   19   21 1
    37   19   23 1
    38   21   22 1
    39   21   40 1
    40   21   41 1
    41   22   42 1
    42   22   43 1
    43   22   44 1
    44   23   24 2
    45   23   25 1
@<TRIPOS>MOLECULE
ZINC55621972
   37    38     0     0     0
SMALL
USER_CHARGES

@<TRIPOS>ATOM
      1 C1         -0.0169    1.3937    0.0097 C.ar      1 <0>        -0.0129
      2 C2          1.1662    2.0965    0.0022 C.ar      1 <0>        -0.1926
      3 C3          2.3811    1.4169   -0.0131 C.ar      1 <0>         0.3124
      4 C4          2.4034    0.0249   -0.0208 C.ar      1 <0>        -0.2756
      5 C5          1.2237   -0.6836   -0.0138 C.ar      1 <0>        -0.0224
      6 C6          0.0021   -0.0041    0.0020 C.ar      1 <0>        -0.2579
      7 C7         -1.2644   -0.7605    0.0105 C.2       1 <0>         0.5739
      8 O1         -2.3263   -0.1682    0.0243 O.2       1 <0>        -0.5666
      9 N1         -1.2445   -2.1081    0.0031 N.am      1 <0>        -0.7340
     10 C8         -2.5022   -2.8593    0.0116 C.3       1 <0>         0.1224
     11 C9         -2.2005   -4.3592    0.0005 C.3       1 <0>         0.0635
     12 O2         -1.5363   -4.7204    1.2131 O.3       1 <0>        -0.5688
     13 N2          3.5749    2.1299   -0.0211 N.2       1 <0>        -1.0695
     14 S1          5.0210    1.3232   -0.0392 S.o2      1 <0>         2.6021
     15 O3          5.1195    0.6381    1.2018 O.2       1 <0>        -1.0227
     16 O4          5.0952    0.6506   -1.2888 O.2       1 <0>        -1.0070
     17 C10         6.2959    2.5394   -0.0455 C.ar      1 <0>        -0.6292
     18 C11         7.1592    2.6409    1.0295 C.ar      1 <0>         0.0088
     19 C12         8.1595    3.5943    1.0258 C.ar      1 <0>        -0.1761
     20 C13         8.2976    4.4488   -0.0552 C.ar      1 <0>         0.1479
     21 C14         7.4336    4.3470   -1.1317 C.ar      1 <0>        -0.1746
     22 C15         6.4360    3.3885   -1.1287 C.ar      1 <0>         0.0855
     23 Cl1         5.3556    3.2559   -2.4810 Cl        1 <0>        -0.0158
     24 F1          9.2749    5.3817   -0.0588 F         1 <0>        -0.1314
     25 H1         -0.9590    1.9215    0.0260 H         1 <0>         0.1188
     26 H2          1.1522    3.1764    0.0078 H         1 <0>         0.1197
     27 H3          3.3474   -0.4995   -0.0326 H         1 <0>         0.1020
     28 H4          1.2416   -1.7634   -0.0204 H         1 <0>         0.1042
     29 H5         -0.3974   -2.5806   -0.0078 H         1 <0>         0.4010
     30 H6         -3.0688   -2.6092    0.9086 H         1 <0>         0.0705
     31 H7         -3.0864   -2.5997   -0.8713 H         1 <0>         0.0777
     32 H8         -3.1333   -4.9169   -0.0828 H         1 <0>         0.0596
     33 H9         -1.5594   -4.5946   -0.8490 H         1 <0>         0.0528
     34 H10        -1.3138   -5.6594    1.2751 H         1 <0>         0.3792
     35 H11         7.0516    1.9748    1.8728 H         1 <0>         0.1582
     36 H12         8.8333    3.6732    1.8661 H         1 <0>         0.1466
     37 H13         7.5402    5.0132   -1.9751 H         1 <0>         0.1502
@<TRIPOS>BOND
     1    1    6 ar
     2    1    2 ar
     3    1   25 1
     4    2    3 ar
     5    2   26 1
     6    3    4 ar
     7    3   13 1
     8    4    5 ar
     9    4   27 1
    10    5    6 ar
    11    5   28 1
    12    6    7 1
    13    7    8 2
    14    7    9 am
    15    9   10 1
    16    9   29 1
    17   10   11 1
    18   10   30 1
    19   10   31 1
    20   11   12 1
    21   11   32 1
    22   11   33 1
    23   12   34 1
    24   13   14 1
    25   14   15 2
    26   14   16 2
    27   14   17 1
    28   17   22 ar
    29   17   18 ar
    30   18   19 ar
    31   18   35 1
    32   19   20 ar
    33   19   36 1
    34   20   21 ar
    35   20   24 1
    36   21   22 ar
    37   21   37 1
    38   22   23 1
@<TRIPOS>MOLECULE
ZINC65834357
   40    41     0     0     0
SMALL
USER_CHARGES

@<TRIPOS>ATOM
      1 C1         -0.0187    1.5258    0.0104 C.3       1 <0>        -0.1426
      2 C2          0.0021   -0.0041    0.0020 C.3       1 <0>        -0.5980
      3 S1          0.8511   -0.5891   -1.4904 S.o2      1 <0>         2.5193
      4 O1          0.0816   -0.2798   -2.6443 O.2       1 <0>        -1.0274
      5 O2          2.2316   -0.2574   -1.4300 O.2       1 <0>        -1.0274
      6 N1          0.8085   -2.2411   -1.3844 N.2       1 <0>        -1.0429
      7 C3          1.3814   -3.0161   -2.3843 C.ar      1 <0>         0.3373
      8 C4          1.9963   -2.4091   -3.4726 C.ar      1 <0>        -0.2581
      9 C5          2.5646   -3.1812   -4.4646 C.ar      1 <0>        -0.0417
     10 C6          2.5272   -4.5645   -4.3854 C.ar      1 <0>        -0.2356
     11 C7          1.9217   -5.1844   -3.3146 C.ar      1 <0>        -0.0399
     12 C8          1.3474   -4.4165   -2.2981 C.ar      1 <0>        -0.2204
     13 C9          0.7039   -5.0734   -1.1457 C.2       1 <0>         0.5698
     14 O3          0.2005   -4.4015   -0.2660 O.2       1 <0>        -0.5027
     15 N2          0.6736   -6.4185   -1.0672 N.am      1 <0>        -0.5431
     16 N3          0.0622   -7.0427    0.0279 N.am      1 <0>        -0.5087
     17 C10         0.0319   -8.3879    0.1064 C.2       1 <0>         0.5520
     18 O4          0.5351   -9.0595   -0.7729 O.2       1 <0>        -0.5460
     19 C11        -0.6133   -9.0466    1.2621 C.ar      1 <0>        -0.1218
     20 C12        -1.1971   -8.2784    2.2707 C.ar      1 <0>        -0.0862
     21 C13        -1.7975   -8.8993    3.3464 C.ar      1 <0>        -0.1256
     22 C14        -1.8219  -10.2804    3.4267 C.ar      1 <0>        -0.0961
     23 C15        -1.2450  -11.0477    2.4303 C.ar      1 <0>        -0.1290
     24 C16        -0.6464  -10.4394    1.3464 C.ar      1 <0>        -0.0581
     25 H1          1.0039    1.9031    0.0027 H         1 <0>         0.0640
     26 H2         -0.5459    1.8868   -0.8726 H         1 <0>         0.0640
     27 H3         -0.5289    1.8773    0.9072 H         1 <0>         0.0684
     28 H4          0.5293   -0.3651    0.8851 H         1 <0>         0.1205
     29 H5         -1.0205   -0.3814    0.0098 H         1 <0>         0.1205
     30 H6          2.0290   -1.3318   -3.5420 H         1 <0>         0.1083
     31 H7          3.0414   -2.7048   -5.3084 H         1 <0>         0.1067
     32 H8          2.9748   -5.1596   -5.1677 H         1 <0>         0.1080
     33 H9          1.8952   -6.2626   -3.2583 H         1 <0>         0.1071
     34 H10         1.0752   -6.9545   -1.7689 H         1 <0>         0.4237
     35 H11        -0.3394   -6.5068    0.7296 H         1 <0>         0.4283
     36 H12        -1.1785   -7.2003    2.2093 H         1 <0>         0.1296
     37 H13        -2.2493   -8.3061    4.1277 H         1 <0>         0.1301
     38 H14        -2.2929  -10.7616    4.2711 H         1 <0>         0.1265
     39 H15        -1.2674  -12.1253    2.4990 H         1 <0>         0.1296
     40 H16        -0.2008  -11.0395    0.5669 H         1 <0>         0.1376
@<TRIPOS>BOND
     1    1    2 1
     2    1   25 1
     3    1   26 1
     4    1   27 1
     5    2    3 1
     6    2   28 1
     7    2   29 1
     8    3    4 2
     9    3    5 2
    10    3    6 1
    11    6    7 1
    12    7   12 ar
    13    7    8 ar
    14    8    9 ar
    15    8   30 1
    16    9   10 ar
    17    9   31 1
    18   10   11 ar
    19   10   32 1
    20   11   12 ar
    21   11   33 1
    22   12   13 1
    23   13   14 2
    24   13   15 am
    25   15   16 1
    26   15   34 1
    27   16   17 am
    28   16   35 1
    29   17   18 2
    30   17   19 1
    31   19   24 ar
    32   19   20 ar
    33   20   21 ar
    34   20   36 1
    35   21   22 ar
    36   21   37 1
    37   22   23 ar
    38   22   38 1
    39   23   24 ar
    40   23   39 1
    41   24   40 1
@<TRIPOS>MOLECULE
ZINC29351736
   46    47     0     0     0
SMALL
USER_CHARGES
(2R)-2-[(4,6-diamino-1,3,5-triazin-2-yl)methylsulfanyl]-N-(2-ethyl-6-methyl-phenyl)propanamide
@<TRIPOS>ATOM
      1 C1          2.8815    1.8832    2.9161 C.3       1 <0>        -0.1469
      2 C2          2.8318    0.5426    2.1805 C.3       1 <0>        -0.0794
      3 C3          1.9109    0.6550    0.9929 C.ar      1 <0>        -0.0870
      4 C4          0.5895    0.2679    1.1037 C.ar      1 <0>        -0.1140
      5 C5         -0.2561    0.3707    0.0146 C.ar      1 <0>        -0.1159
      6 C6          0.2175    0.8619   -1.1884 C.ar      1 <0>        -0.1147
      7 C7          1.5373    1.2509   -1.3055 C.ar      1 <0>        -0.0717
      8 C8          2.3895    1.1480   -0.2136 C.ar      1 <0>         0.1449
      9 N1          3.7274    1.5414   -0.3289 N.am      1 <0>        -0.6853
     10 C9          4.0301    2.7867   -0.7460 C.2       1 <0>         0.5346
     11 O1          3.1457    3.5951   -0.9339 O.2       1 <0>        -0.4993
     12 C10         5.4676    3.1747   -0.9789 C.3       1 <0>        -0.1032
     13 H1          6.0316    2.5097   -0.3083 H         1 <0>         0.1095
     14 C11         5.8859    2.7584   -2.3905 C.3       1 <0>        -0.1503
     15 S1          5.6454    4.9712   -0.8007 S.3       1 <0>        -0.1141
     16 C12         7.4306    5.2530   -0.9563 C.3       1 <0>        -0.0479
     17 C13         7.7200    6.7261   -0.8251 C.ar      1 <0>         0.4472
     18 N2          7.7335    7.4934   -1.9010 N.ar      1 <0>        -0.6325
     19 C14         7.9841    8.7959   -1.7886 C.ar      1 <0>         0.6351
     20 N3          8.2307    9.3224   -0.5940 N.ar      1 <0>        -0.6635
     21 C15         8.2212    8.5469    0.4846 C.ar      1 <0>         0.6350
     22 N4          7.9648    7.2462    0.3648 N.ar      1 <0>        -0.6334
     23 N5          8.4772    9.0889    1.7276 N.pl3     1 <0>        -0.8305
     24 N6          7.9929    9.5973   -2.9120 N.pl3     1 <0>        -0.8303
     25 C16         2.0526    1.7855   -2.6168 C.3       1 <0>        -0.1121
     26 H2          3.5537    1.8011    3.7829 H         1 <0>         0.0589
     27 H3          1.8713    2.1507    3.2595 H         1 <0>         0.0564
     28 H4          3.2552    2.6617    2.2347 H         1 <0>         0.0554
     29 H5          3.8420    0.2751    1.8371 H         1 <0>         0.0671
     30 H6          2.4581   -0.2359    2.8619 H         1 <0>         0.0739
     31 H7          0.2166   -0.1157    2.0419 H         1 <0>         0.1249
     32 H8         -1.2887    0.0671    0.1037 H         1 <0>         0.1242
     33 H9         -0.4445    0.9371   -2.0384 H         1 <0>         0.1247
     34 H10         4.5321    0.8343   -0.0791 H         1 <0>         0.4287
     35 H11         6.9351    3.0416   -2.5605 H         1 <0>         0.0740
     36 H12         5.2453    3.2653   -3.1272 H         1 <0>         0.0775
     37 H13         5.7780    1.6691   -2.4986 H         1 <0>         0.0705
     38 H14         7.9590    4.7035   -0.1633 H         1 <0>         0.1128
     39 H15         7.7735    4.8981   -1.9394 H         1 <0>         0.1139
     40 H16         8.4691    8.4461    2.6202 H         1 <0>         0.4413
     41 H17         8.6893   10.1638    1.8258 H         1 <0>         0.4391
     42 H18         8.2001   10.6735   -2.8182 H         1 <0>         0.4391
     43 H19         7.7927    9.1599   -3.9012 H         1 <0>         0.4415
     44 H20         3.1179    2.0403   -2.5156 H         1 <0>         0.0623
     45 H21         1.4849    2.6860   -2.8941 H         1 <0>         0.0742
     46 H22         1.9311    1.0204   -3.3978 H         1 <0>         0.0650
@<TRIPOS>BOND
     1    1    2 1
     2    1   26 1
     3    1   27 1
     4    1   28 1
     5    2    3 1
     6    2   29 1
     7    2   30 1
     8    3    8 ar
     9    3    4 ar
    10    4    5 ar
    11    4   31 1
    12    5    6 ar
    13    5   32 1
    14    6    7 ar
    15    6   33 1
    16    7    8 ar
    17    7   25 1
    18    8    9 1
    19    9   10 am
    20    9   34 1
    21   10   11 2
    22   10   12 1
    23   12   13 1
    24   12   14 1
    25   12   15 1
    26   14   35 1
    27   14   36 1
    28   14   37 1
    29   15   16 1
    30   16   17 1
    31   16   38 1
    32   16   39 1
    33   17   22 ar
    34   17   18 ar
    35   18   19 ar
    36   19   20 ar
    37   19   24 1
    38   20   21 ar
    39   21   22 ar
    40   21   23 1
    41   23   40 1
    42   23   41 1
    43   24   42 1
    44   24   43 1
    45   25   44 1
    46   25   45 1
    47   25   46 1
@<TRIPOS>MOLECULE
ZINC42788555
   40    40     0     0     0
SMALL
USER_CHARGES

@<TRIPOS>ATOM
      1 C1         -5.8498   -1.4886   -3.0490 C.3       1 <0>        -0.1112
      2 C2         -5.0823   -2.7302   -2.6743 C.ar      1 <0>        -0.1254
      3 C3         -4.6630   -3.6058   -3.6587 C.ar      1 <0>        -0.0809
      4 C4         -3.9596   -4.7449   -3.3178 C.ar      1 <0>        -0.1484
      5 C5         -3.6737   -5.0096   -1.9863 C.ar      1 <0>         0.1246
      6 C6         -4.0952   -4.1292   -1.0004 C.ar      1 <0>        -0.2055
      7 C7         -4.7937   -2.9889   -1.3470 C.ar      1 <0>        -0.0809
      8 O1         -2.9824   -6.1297   -1.6482 O.3       1 <0>        -0.3134
      9 C8         -2.7240   -6.3379   -0.2583 C.3       1 <0>         0.0597
     10 C9         -1.9411   -7.6395   -0.0744 C.3       1 <0>        -0.1044
     11 C10        -1.6644   -7.8624    1.4138 C.3       1 <0>        -0.1351
     12 C11        -0.8933   -9.1444    1.5948 C.2       1 <0>         0.5243
     13 O2         -0.5944   -9.8139    0.6287 O.2       1 <0>        -0.5328
     14 N1         -0.5357   -9.5469    2.8304 N.am      1 <0>        -0.7000
     15 C12         0.2139  -10.7932    3.0064 C.3       1 <0>         0.1072
     16 C13         1.6856  -10.5240    2.8253 C.2       1 <0>         0.5154
     17 O3          2.1303   -9.4163    3.0398 O.2       1 <0>        -0.5134
     18 N2          2.5075  -11.5143    2.4250 N.am      1 <0>        -0.8459
     19 C14        -0.0309  -11.3354    4.3911 C.2       1 <0>         0.5258
     20 O4         -0.3704  -10.5878    5.2837 O.2       1 <0>        -0.5150
     21 N3          0.1275  -12.6509    4.6374 N.am      1 <0>        -0.8422
     22 H1         -5.1521   -0.6710   -3.2303 H         1 <0>         0.0683
     23 H2         -6.4295   -1.6786   -3.9524 H         1 <0>         0.0655
     24 H3         -6.5230   -1.2182   -2.2355 H         1 <0>         0.0646
     25 H4         -4.8858   -3.3993   -4.6951 H         1 <0>         0.1291
     26 H5         -3.6329   -5.4289   -4.0870 H         1 <0>         0.1310
     27 H6         -3.8739   -4.3331    0.0368 H         1 <0>         0.1276
     28 H7         -5.1182   -2.3010   -0.5803 H         1 <0>         0.1244
     29 H8         -2.1398   -5.5043    0.1315 H         1 <0>         0.0644
     30 H9         -3.6689   -6.4030    0.2812 H         1 <0>         0.0642
     31 H10        -2.5253   -8.4731   -0.4642 H         1 <0>         0.0840
     32 H11        -0.9962   -7.5744   -0.6139 H         1 <0>         0.0839
     33 H12        -1.0802   -7.0288    1.8035 H         1 <0>         0.1042
     34 H13        -2.6093   -7.9274    1.9532 H         1 <0>         0.1031
     35 H14        -0.7748   -9.0115    3.6031 H         1 <0>         0.4191
     36 H15        -0.1157  -11.5230    2.2670 H         1 <0>         0.1334
     37 H16         2.1423  -12.3801    2.1840 H         1 <0>         0.4025
     38 H17         3.4642  -11.3613    2.3779 H         1 <0>         0.4098
     39 H18         0.3297  -13.2597    3.9098 H         1 <0>         0.4050
     40 H19         0.0392  -12.9890    5.5423 H         1 <0>         0.4134
@<TRIPOS>BOND
     1    1    2 1
     2    1   22 1
     3    1   23 1
     4    1   24 1
     5    2    7 ar
     6    2    3 ar
     7    3    4 ar
     8    3   25 1
     9    4    5 ar
    10    4   26 1
    11    5    6 ar
    12    5    8 1
    13    6    7 ar
    14    6   27 1
    15    7   28 1
    16    8    9 1
    17    9   10 1
    18    9   29 1
    19    9   30 1
    20   10   11 1
    21   10   31 1
    22   10   32 1
    23   11   12 1
    24   11   33 1
    25   11   34 1
    26   12   13 2
    27   12   14 am
    28   14   15 1
    29   14   35 1
    30   15   16 1
    31   15   19 1
    32   15   36 1
    33   16   17 2
    34   16   18 am
    35   18   37 1
    36   18   38 1
    37   19   20 2
    38   19   21 am
    39   21   39 1
    40   21   40 1
@<TRIPOS>MOLECULE
ZINC47837215
   38    38     0     0     0
SMALL
USER_CHARGES

@<TRIPOS>ATOM
      1 C1         -0.0163    1.3518    0.0095 C.2       1 <0>        -0.1869
      2 C2          1.1755    2.0360    0.0018 C.2       1 <0>        -0.0537
      3 C3          2.3196    1.2528   -0.0134 C.2       1 <0>        -0.2639
      4 S1          1.6361   -0.3937   -0.0157 S.3       1 <0>         0.2158
      5 C4          0.0021   -0.0041    0.0020 C.2       1 <0>        -0.2129
      6 C5          3.7247    1.6700   -0.0249 C.2       1 <0>         0.6107
      7 O1          4.0082    2.8535   -0.0217 O.2       1 <0>        -0.5250
      8 N1          4.7028    0.7428   -0.0392 N.am      1 <0>        -0.5212
      9 N2          6.0458    1.1415   -0.0503 N.am      1 <0>        -0.5218
     10 C6          7.0239    0.2143   -0.0645 C.2       1 <0>         0.5143
     11 O2          6.7414   -0.9651   -0.0677 O.2       1 <0>        -0.5360
     12 C7          8.4686    0.6432   -0.0764 C.3       1 <0>        -0.1301
     13 C8          9.3679   -0.5945   -0.0915 C.3       1 <0>        -0.1036
     14 C9         10.8346   -0.1591   -0.1036 C.3       1 <0>        -0.1175
     15 C10        11.7339   -1.3968   -0.1186 C.3       1 <0>        -0.1314
     16 C11        13.2006   -0.9614   -0.1307 C.3       1 <0>         0.1352
     17 N3         14.0617   -2.1465   -0.1451 N.am      1 <0>        -0.7471
     18 C12        15.4020   -2.0055   -0.1575 C.2       1 <0>         0.7034
     19 O3         15.8965   -0.8947   -0.1567 O.2       1 <0>        -0.5943
     20 N4         16.1942   -3.0958   -0.1707 N.am      1 <0>        -0.8683
     21 H1         -0.9545    1.8865    0.0258 H         1 <0>         0.1432
     22 H2          1.2182    3.1152    0.0068 H         1 <0>         0.1531
     23 H3         -0.8410   -0.6791    0.0068 H         1 <0>         0.1928
     24 H4          4.4769   -0.2005   -0.0418 H         1 <0>         0.4315
     25 H5          6.2718    2.0848   -0.0477 H         1 <0>         0.4345
     26 H6          8.6620    1.2437   -0.9653 H         1 <0>         0.1031
     27 H7          8.6793    1.2347    0.8146 H         1 <0>         0.1031
     28 H8          9.1744   -1.1950    0.7974 H         1 <0>         0.0736
     29 H9          9.1571   -1.1860   -0.9824 H         1 <0>         0.0736
     30 H10        11.0280    0.4414   -0.9924 H         1 <0>         0.0697
     31 H11        11.0453    0.4324    0.7874 H         1 <0>         0.0697
     32 H12        11.5405   -1.9973    0.7703 H         1 <0>         0.0711
     33 H13        11.5231   -1.9883   -1.0096 H         1 <0>         0.0711
     34 H14        13.3940   -0.3609   -1.0196 H         1 <0>         0.0673
     35 H15        13.4114   -0.3699    0.7603 H         1 <0>         0.0673
     36 H16        13.6672   -3.0327   -0.1458 H         1 <0>         0.3971
     37 H17        15.7997   -3.9820   -0.1714 H         1 <0>         0.3970
     38 H18        17.1588   -2.9943   -0.1796 H         1 <0>         0.4157
@<TRIPOS>BOND
     1    1    5 2
     2    1    2 1
     3    1   21 1
     4    2    3 2
     5    2   22 1
     6    3    4 1
     7    3    6 1
     8    4    5 1
     9    5   23 1
    10    6    7 2
    11    6    8 am
    12    8    9 1
    13    8   24 1
    14    9   10 am
    15    9   25 1
    16   10   11 2
    17   10   12 1
    18   12   13 1
    19   12   26 1
    20   12   27 1
    21   13   14 1
    22   13   28 1
    23   13   29 1
    24   14   15 1
    25   14   30 1
    26   14   31 1
    27   15   16 1
    28   15   32 1
    29   15   33 1
    30   16   17 1
    31   16   34 1
    32   16   35 1
    33   17   18 am
    34   17   36 1
    35   18   19 2
    36   18   20 am
    37   20   37 1
    38   20   38 1
@<TRIPOS>MOLECULE
ZINC58687697
   44    45     0     0     0
SMALL
USER_CHARGES

@<TRIPOS>ATOM
      1 C1          2.5518   -0.3994    1.1781 C.3       1 <0>        -0.1162
      2 C2          1.2744   -0.8977    0.5528 C.ar      1 <0>        -0.0701
      3 C3          1.3125   -1.5728   -0.6532 C.ar      1 <0>        -0.1283
      4 C4          0.1410   -2.0298   -1.2267 C.ar      1 <0>        -0.1101
      5 C5         -1.0690   -1.8122   -0.5942 C.ar      1 <0>        -0.1304
      6 C6         -1.1071   -1.1382    0.6118 C.ar      1 <0>        -0.0695
      7 C7          0.0653   -0.6848    1.1876 C.ar      1 <0>        -0.0992
      8 C8          0.0243    0.0455    2.5052 C.3       1 <0>         0.2323
      9 H1          0.6523    0.9346    2.4475 H         1 <0>         0.1089
     10 C9         -1.4161    0.4578    2.8152 C.3       1 <0>        -0.1552
     11 C10        -1.4406    1.2933    4.0692 C.2       1 <0>         0.5218
     12 O1         -0.4077    1.5351    4.6571 O.2       1 <0>        -0.5360
     13 N1         -2.6104    1.7717    4.5374 N.am      1 <0>        -0.5220
     14 N2         -2.6332    2.5484    5.7032 N.am      1 <0>        -0.5184
     15 C11        -3.8029    3.0268    6.1714 C.2       1 <0>         0.5675
     16 O2         -4.8381    2.7845    5.5823 O.2       1 <0>        -0.5299
     17 C12        -3.8270    3.8464    7.4016 C.ar      1 <0>        -0.1851
     18 C13        -5.0364    4.3445    7.9016 C.ar      1 <0>        -0.0099
     19 C14        -5.0045    5.1058    9.0565 C.ar      1 <0>        -0.1761
     20 C15        -3.7906    5.3483    9.6744 C.ar      1 <0>         0.1291
     21 N3         -2.6664    4.8663    9.1800 N.ar      1 <0>        -0.4840
     22 C16        -2.6458    4.1317    8.0871 C.ar      1 <0>         0.1381
     23 N4          0.5197   -0.8342    3.5668 N.am      1 <0>        -0.7292
     24 C17        -0.0670   -2.0286    3.7808 C.2       1 <0>         0.7040
     25 O3         -0.9461   -2.4163    3.0356 O.2       1 <0>        -0.5845
     26 N5          0.3208   -2.7931    4.8207 N.am      1 <0>        -0.8692
     27 H2          2.9641   -1.1721    1.8270 H         1 <0>         0.0686
     28 H3          3.2710   -0.1611    0.3945 H         1 <0>         0.0659
     29 H4          2.3441    0.4953    1.7650 H         1 <0>         0.0665
     30 H5          2.2577   -1.7427   -1.1472 H         1 <0>         0.1194
     31 H6          0.1707   -2.5565   -2.1691 H         1 <0>         0.1193
     32 H7         -1.9846   -2.1687   -1.0427 H         1 <0>         0.1199
     33 H8         -2.0523   -0.9680    1.1057 H         1 <0>         0.1235
     34 H9         -1.8147    1.0389    1.9836 H         1 <0>         0.1135
     35 H10        -2.0259   -0.4338    2.9607 H         1 <0>         0.1230
     36 H11        -3.4365    1.5783    4.0673 H         1 <0>         0.4341
     37 H12        -1.8071    2.7418    6.1734 H         1 <0>         0.4315
     38 H13        -5.9699    4.1400    7.3986 H         1 <0>         0.1513
     39 H14        -5.9175    5.5069    9.4711 H         1 <0>         0.1484
     40 H15        -3.7627    5.9423   10.5759 H         1 <0>         0.1663
     41 H16        -1.7059    3.7506    7.7159 H         1 <0>         0.1583
     42 H17         1.2699   -0.5571    4.1156 H         1 <0>         0.4019
     43 H18         1.0221   -2.4838    5.4152 H         1 <0>         0.3960
     44 H19        -0.1015   -3.6527    4.9747 H         1 <0>         0.4140
@<TRIPOS>BOND
     1    1    2 1
     2    1   27 1
     3    1   28 1
     4    1   29 1
     5    2    7 ar
     6    2    3 ar
     7    3    4 ar
     8    3   30 1
     9    4    5 ar
    10    4   31 1
    11    5    6 ar
    12    5   32 1
    13    6    7 ar
    14    6   33 1
    15    7    8 1
    16    8    9 1
    17    8   10 1
    18    8   23 1
    19   10   11 1
    20   10   34 1
    21   10   35 1
    22   11   12 2
    23   11   13 am
    24   13   14 1
    25   13   36 1
    26   14   15 am
    27   14   37 1
    28   15   16 2
    29   15   17 1
    30   17   22 ar
    31   17   18 ar
    32   18   19 ar
    33   18   38 1
    34   19   20 ar
    35   19   39 1
    36   20   21 ar
    37   20   40 1
    38   21   22 ar
    39   22   41 1
    40   23   24 am
    41   23   42 1
    42   24   25 2
    43   24   26 am
    44   26   43 1
    45   26   44 1
@<TRIPOS>MOLECULE
ZINC66241530
   46    48     0     0     0
SMALL
USER_CHARGES

@<TRIPOS>ATOM
      1 C1         -0.0166    1.3751    0.0096 C.ar      1 <0>        -0.1235
      2 C2          1.1704    2.0863    0.0021 C.ar      1 <0>        -0.0845
      3 C3          2.3828    1.4202   -0.0131 C.ar      1 <0>        -0.0911
      4 C4          2.4156    0.0409   -0.0213 C.ar      1 <0>        -0.0517
      5 C5          1.2221   -0.6824   -0.0138 C.ar      1 <0>        -0.1371
      6 C6          0.0021   -0.0041    0.0020 C.ar      1 <0>        -0.0859
      7 C7          1.2496   -2.1606   -0.0230 C.2       1 <0>         0.5624
      8 O1          2.3134   -2.7485   -0.0371 O.2       1 <0>        -0.5375
      9 N1          0.0952   -2.8561   -0.0157 N.am      1 <0>        -0.8505
     10 C8          3.6706    2.2029   -0.0212 C.3       1 <0>        -0.0927
     11 C9          4.1202    2.4600    1.4185 C.3       1 <0>         0.1231
     12 N2          5.3721    3.2209    1.4106 N.am      1 <0>        -0.7264
     13 C10         5.9591    3.5646    2.5741 C.2       1 <0>         0.5599
     14 O2          5.4497    3.2432    3.6303 O.2       1 <0>        -0.5296
     15 C11         7.2207    4.3314    2.5662 C.ar      1 <0>        -0.1382
     16 C12         7.8045    4.7066    1.3535 C.ar      1 <0>        -0.0604
     17 C13         8.9810    5.4222    1.3498 C.ar      1 <0>        -0.1128
     18 C14         9.5882    5.7714    2.5513 C.ar      1 <0>         0.1838
     19 C15         9.0099    5.3996    3.7603 C.ar      1 <0>        -0.1551
     20 C16         7.8307    4.6886    3.7715 C.ar      1 <0>        -0.0293
     21 N3         10.7823    6.4972    2.5438 N.pl3     1 <0>        -0.3488
     22 C17        11.1471    7.4381    3.4536 C.2       1 <0>         0.4337
     23 C18        12.4017    7.9064    3.0735 C.2       1 <0>        -0.2549
     24 C19        12.7682    7.2058    1.9006 C.2       1 <0>         0.1433
     25 N4         11.8093    6.3749    1.6016 N.2       1 <0>        -0.2872
     26 C20        13.1752    8.9083    3.7433 C.1       1 <0>         0.2927
     27 N5         13.7888    9.7030    4.2747 N.1       1 <0>        -0.4366
     28 N6         10.4123    7.8518    4.5473 N.pl3     1 <0>        -0.8319
     29 H1         -0.9597    1.9011    0.0260 H         1 <0>         0.1322
     30 H2          1.1503    3.1661    0.0077 H         1 <0>         0.1297
     31 H3          3.3627   -0.4779   -0.0339 H         1 <0>         0.1378
     32 H4         -0.9251   -0.5579    0.0083 H         1 <0>         0.1274
     33 H5         -0.7537   -2.3869   -0.0044 H         1 <0>         0.4013
     34 H6          0.1133   -3.8259   -0.0217 H         1 <0>         0.4070
     35 H7          4.4383    1.6339   -0.5454 H         1 <0>         0.0849
     36 H8          3.5140    3.1549   -0.5284 H         1 <0>         0.0845
     37 H9          3.3525    3.0291    1.9428 H         1 <0>         0.0739
     38 H10         4.2768    1.5081    1.9257 H         1 <0>         0.0746
     39 H11         5.7785    3.4773    0.5680 H         1 <0>         0.4013
     40 H12         7.3338    4.4354    0.4201 H         1 <0>         0.1386
     41 H13         9.4330    5.7122    0.4127 H         1 <0>         0.1466
     42 H14         9.4840    5.6725    4.6915 H         1 <0>         0.1382
     43 H15         7.3800    4.4037    4.7107 H         1 <0>         0.1502
     44 H16        13.6877    7.3345    1.3490 H         1 <0>         0.2034
     45 H17         9.5429    7.4596    4.7240 H         1 <0>         0.4108
     46 H18        10.7657    8.5345    5.1389 H         1 <0>         0.4243
@<TRIPOS>BOND
     1    1    6 ar
     2    1    2 ar
     3    1   29 1
     4    2    3 ar
     5    2   30 1
     6    3    4 ar
     7    3   10 1
     8    4    5 ar
     9    4   31 1
    10    5    6 ar
    11    5    7 1
    12    6   32 1
    13    7    8 2
    14    7    9 am
    15    9   33 1
    16    9   34 1
    17   10   11 1
    18   10   35 1
    19   10   36 1
    20   11   12 1
    21   11   37 1
    22   11   38 1
    23   12   13 am
    24   12   39 1
    25   13   14 2
    26   13   15 1
    27   15   20 ar
    28   15   16 ar
    29   16   17 ar
    30   16   40 1
    31   17   18 ar
    32   17   41 1
    33   18   19 ar
    34   18   21 1
    35   19   20 ar
    36   19   42 1
    37   20   43 1
    38   21   25 1
    39   21   22 1
    40   22   23 2
    41   22   28 1
    42   23   24 1
    43   23   26 1
    44   24   25 2
    45   24   44 1
    46   26   27 3
    47   28   45 1
    48   28   46 1
@<TRIPOS>MOLECULE
ZINC37063745
   46    46     0     0     0
SMALL
USER_CHARGES

@<TRIPOS>ATOM
      1 C1          1.6065   -1.5087    3.2855 C.3       1 <0>        -0.1462
      2 C2          0.5636   -1.4326    2.2003 C.ar      1 <0>         0.0668
      3 C3          0.6407   -2.2760    1.1092 C.ar      1 <0>        -0.2216
      4 C4         -0.3212   -2.2056    0.1097 C.ar      1 <0>         0.2777
      5 C5         -1.3580   -1.2864    0.2113 C.ar      1 <0>        -0.2222
      6 C6         -1.4290   -0.4463    1.3048 C.ar      1 <0>         0.0293
      7 C7         -0.4725   -0.5227    2.3008 C.ar      1 <0>        -0.7423
      8 S1         -0.5711    0.5464    3.6980 S.o2      1 <0>         2.6989
      9 O1         -1.7115    1.3704    3.4993 O.2       1 <0>        -0.9594
     10 O2         -0.4145   -0.2732    4.8483 O.2       1 <0>        -0.9496
     11 N1          0.7492    1.5446    3.6449 N.pl3     1 <0>        -1.1220
     12 C8          0.9169    2.4785    2.5286 C.3       1 <0>         0.1313
     13 C9          1.9689    3.5273    2.8948 C.3       1 <0>        -0.0924
     14 C10         1.5132    4.2945    4.1375 C.3       1 <0>        -0.1666
     15 C11         3.3016    2.8335    3.1840 C.3       1 <0>        -0.1777
     16 C12         2.1441    4.5026    1.7290 C.3       1 <0>        -0.0051
     17 N2          3.1545    5.5094    2.0805 N.4       1 <0>        -0.3866
     18 C13         4.4911    4.9983    1.7485 C.3       1 <0>        -0.0736
     19 C14         2.9002    6.7429    1.3244 C.3       1 <0>        -0.0485
     20 N3         -0.2460   -3.0567   -0.9953 N.pl3     1 <0>        -0.8624
     21 H1          1.2467   -2.1488    4.0910 H         1 <0>         0.1012
     22 H2          2.5276   -1.9233    2.8758 H         1 <0>         0.0821
     23 H3          1.7996   -0.5089    3.6746 H         1 <0>         0.0648
     24 H4          1.4482   -2.9892    1.0331 H         1 <0>         0.1308
     25 H5         -2.1073   -1.2289   -0.5643 H         1 <0>         0.1321
     26 H6         -2.2346    0.2687    1.3842 H         1 <0>         0.1427
     27 H7          1.4114    1.5110    4.3528 H         1 <0>         0.4180
     28 H8          1.2416    1.9318    1.6432 H         1 <0>         0.0793
     29 H9         -0.0325    2.9727    2.3226 H         1 <0>         0.0933
     30 H10         1.3884    3.5997    4.9681 H         1 <0>         0.0898
     31 H11         2.2627    5.0417    4.3984 H         1 <0>         0.0547
     32 H12         0.5638    4.7888    3.9315 H         1 <0>         0.0814
     33 H13         3.7090    2.4286    2.2576 H         1 <0>         0.0793
     34 H14         4.0027    3.5543    3.6047 H         1 <0>         0.0686
     35 H15         3.1426    2.0234    3.8956 H         1 <0>         0.0871
     36 H16         2.4686    3.9559    0.8436 H         1 <0>         0.1365
     37 H17         1.1948    4.9970    1.5231 H         1 <0>         0.1377
     38 H18         4.6395    4.0307    2.2278 H         1 <0>         0.1386
     39 H19         4.5791    4.8859    0.6679 H         1 <0>         0.1235
     40 H20         5.2466    5.6993    2.1036 H         1 <0>         0.1235
     41 H21         1.9084    7.1221    1.5707 H         1 <0>         0.1244
     42 H22         3.6498    7.4900    1.5852 H         1 <0>         0.1245
     43 H23         2.9536    6.5320    0.2564 H         1 <0>         0.1234
     44 H24         0.4785   -3.6978   -1.0652 H         1 <0>         0.4053
     45 H25        -0.9183   -3.0066   -1.6927 H         1 <0>         0.4060
     46 H26         3.1050    5.7046    3.0692 H         1 <0>         0.4234
@<TRIPOS>BOND
     1    1    2 1
     2    1   21 1
     3    1   22 1
     4    1   23 1
     5    2    7 ar
     6    2    3 ar
     7    3    4 ar
     8    3   24 1
     9    4    5 ar
    10    4   20 1
    11    5    6 ar
    12    5   25 1
    13    6    7 ar
    14    6   26 1
    15    7    8 1
    16    8    9 2
    17    8   10 2
    18    8   11 1
    19   11   12 1
    20   11   27 1
    21   12   13 1
    22   12   28 1
    23   12   29 1
    24   13   14 1
    25   13   15 1
    26   13   16 1
    27   14   30 1
    28   14   31 1
    29   14   32 1
    30   15   33 1
    31   15   34 1
    32   15   35 1
    33   16   17 1
    34   16   36 1
    35   16   37 1
    36   17   18 1
    37   17   19 1
    38   17   46 1
    39   18   38 1
    40   18   39 1
    41   18   40 1
    42   19   41 1
    43   19   42 1
    44   19   43 1
    45   20   44 1
    46   20   45 1
@<TRIPOS>MOLECULE
ZINC45067702
   47    48     0     0     0
SMALL
USER_CHARGES

@<TRIPOS>ATOM
      1 C1         -0.0165    1.3785    0.0260 C.ar      1 <0>        -0.0361
      2 C2          1.1691    2.0867    0.0185 C.ar      1 <0>        -0.2040
      3 C3          2.3811    1.4088   -0.0131 C.ar      1 <0>         0.2610
      4 C4          2.3961    0.0200   -0.0370 C.ar      1 <0>        -0.2044
      5 C5          1.2069   -0.6821   -0.0294 C.ar      1 <0>        -0.0361
      6 C6          0.0021   -0.0041    0.0020 C.ar      1 <0>        -0.2448
      7 C7         -1.2936   -0.7735    0.0107 C.3       1 <0>         0.0570
      8 N1         -1.7380   -0.9999   -1.3711 N.4       1 <0>        -0.5123
      9 C8         -3.0010   -1.7500   -1.3626 C.3       1 <0>        -0.0015
     10 C9         -3.4638   -1.9857   -2.8017 C.3       1 <0>        -0.1431
     11 C10        -4.7793   -2.7670   -2.7929 C.3       1 <0>        -0.6394
     12 S1         -5.3280   -3.0465   -4.4992 S.o2      1 <0>         2.6220
     13 O1         -5.6994   -1.8144   -5.1019 O.2       1 <0>        -0.9518
     14 O2         -4.4392   -3.9371   -5.1595 O.2       1 <0>        -0.9486
     15 N2         -6.7451   -3.8916   -4.3575 N.pl3     1 <0>        -1.2458
     16 N3          3.5820    2.1220   -0.0212 N.pl3     1 <0>        -0.6118
     17 C11         4.8700    1.4204    0.0669 C.3       1 <0>         0.1112
     18 C12         5.7532    1.8621   -1.1042 C.3       1 <0>        -0.1374
     19 C13         5.8675    3.3882   -1.1045 C.3       1 <0>        -0.1240
     20 C14         4.4791    4.0055   -1.2870 C.3       1 <0>        -0.1373
     21 C15         3.5816    3.5876   -0.1240 C.3       1 <0>         0.1120
     22 H1         -0.9591    1.9048    0.0550 H         1 <0>         0.1281
     23 H2          1.1539    3.1665    0.0368 H         1 <0>         0.1338
     24 H3          3.3367   -0.5102   -0.0619 H         1 <0>         0.1340
     25 H4          1.2178   -1.7619   -0.0480 H         1 <0>         0.1280
     26 H5         -1.1432   -1.7329    0.5057 H         1 <0>         0.1328
     27 H6         -2.0516   -0.2028    0.5472 H         1 <0>         0.1329
     28 H7         -1.8773   -0.1118   -1.8293 H         1 <0>         0.4278
     29 H8         -2.8505   -2.7094   -0.8675 H         1 <0>         0.1365
     30 H9         -3.7590   -1.1792   -0.8261 H         1 <0>         0.1366
     31 H10        -3.6143   -1.0264   -3.2968 H         1 <0>         0.1054
     32 H11        -2.7059   -2.5565   -3.3382 H         1 <0>         0.1052
     33 H12        -4.6288   -3.7263   -2.2979 H         1 <0>         0.1449
     34 H13        -5.5373   -2.1962   -2.2564 H         1 <0>         0.1475
     35 H14        -7.4366   -3.7953   -5.0308 H         1 <0>         0.4279
     36 H15        -6.8836   -4.4829   -3.6011 H         1 <0>         0.4161
     37 H16         5.3590    1.6711    1.0082 H         1 <0>         0.0728
     38 H17         4.7043    0.3444    0.0141 H         1 <0>         0.0861
     39 H18         6.7451    1.4230   -0.9977 H         1 <0>         0.0803
     40 H19         5.3068    1.5306   -2.0418 H         1 <0>         0.0672
     41 H20         6.2911    3.7208   -0.1568 H         1 <0>         0.0674
     42 H21         6.5155    3.7037   -1.9222 H         1 <0>         0.0712
     43 H22         4.5641    5.0919   -1.3105 H         1 <0>         0.0808
     44 H23         4.0447    3.6537   -2.2228 H         1 <0>         0.0668
     45 H24         2.5661    3.9411   -0.3028 H         1 <0>         0.0855
     46 H25         3.9632    4.0190    0.8014 H         1 <0>         0.0719
     47 H26        -1.0364   -1.5282   -1.8677 H         1 <0>         0.4278
@<TRIPOS>BOND
     1    1    6 ar
     2    1    2 ar
     3    1   22 1
     4    2    3 ar
     5    2   23 1
     6    3    4 ar
     7    3   16 1
     8    4    5 ar
     9    4   24 1
    10    5    6 ar
    11    5   25 1
    12    6    7 1
    13    7    8 1
    14    7   26 1
    15    7   27 1
    16    8    9 1
    17    8   28 1
    18    8   47 1
    19    9   10 1
    20    9   29 1
    21    9   30 1
    22   10   11 1
    23   10   31 1
    24   10   32 1
    25   11   12 1
    26   11   33 1
    27   11   34 1
    28   12   13 2
    29   12   14 2
    30   12   15 1
    31   15   35 1
    32   15   36 1
    33   16   21 1
    34   16   17 1
    35   17   18 1
    36   17   37 1
    37   17   38 1
    38   18   19 1
    39   18   39 1
    40   18   40 1
    41   19   20 1
    42   19   41 1
    43   19   42 1
    44   20   21 1
    45   20   43 1
    46   20   44 1
    47   21   45 1
    48   21   46 1
@<TRIPOS>MOLECULE
ZINC49554768
   46    46     0     0     0
SMALL
USER_CHARGES

@<TRIPOS>ATOM
      1 C1          2.1152   -1.9458   -2.2552 C.3       1 <0>        -0.1234
      2 C2          1.0972   -1.5879   -1.2032 C.ar      1 <0>        -0.0523
      3 C3          0.2173   -0.5457   -1.4211 C.ar      1 <0>        -0.1376
      4 C4         -0.7210   -0.2169   -0.4512 C.ar      1 <0>         0.2028
      5 C5         -0.7709   -0.9379    0.7353 C.ar      1 <0>        -0.1091
      6 C6          0.1117   -1.9786    0.9466 C.ar      1 <0>        -0.6278
      7 C7          1.0413   -2.3068   -0.0235 C.ar      1 <0>        -0.0397
      8 C8          1.9988   -3.4472    0.2080 C.3       1 <0>        -0.1650
      9 S1          0.0496   -2.8934    2.4512 S.o2      1 <0>         2.6949
     10 O1         -0.9489   -2.2826    3.2570 O.2       1 <0>        -0.9593
     11 O2          0.0020   -4.2668    2.0898 O.2       1 <0>        -0.9463
     12 N1          1.4934   -2.6580    3.2273 N.pl3     1 <0>        -1.1213
     13 C9          1.8539   -1.3245    3.7152 C.3       1 <0>         0.1544
     14 H1          0.9487   -0.7374    3.8704 H         1 <0>         0.1046
     15 C10         2.7434   -0.6273    2.6839 C.3       1 <0>        -0.1806
     16 C11         2.6115   -1.4530    5.0383 C.3       1 <0>        -0.1530
     17 C12         1.6813   -2.0362    6.1040 C.3       1 <0>        -0.0184
     18 N2          2.4087   -2.1596    7.3743 N.4       1 <0>        -0.3870
     19 C13         2.7702   -0.8224    7.8635 C.3       1 <0>        -0.0534
     20 C14         1.5547   -2.8290    8.3645 C.3       1 <0>        -0.0491
     21 N3         -1.6120    0.8367   -0.6680 N.pl3     1 <0>        -0.8747
     22 H2          1.6898   -2.6823   -2.9368 H         1 <0>         0.0785
     23 H3          2.3911   -1.0510   -2.8131 H         1 <0>         0.0713
     24 H4          3.0011   -2.3629   -1.7764 H         1 <0>         0.0741
     25 H5          0.2590    0.0130   -2.3443 H         1 <0>         0.1309
     26 H6         -1.4990   -0.6846    1.4916 H         1 <0>         0.1394
     27 H7          2.8541   -3.0925    0.7832 H         1 <0>         0.0770
     28 H8          1.4934   -4.2397    0.7599 H         1 <0>         0.0955
     29 H9          2.3416   -3.8343   -0.7515 H         1 <0>         0.0862
     30 H10         2.1004   -3.4030    3.3589 H         1 <0>         0.4202
     31 H11         2.2037   -0.5357    1.7413 H         1 <0>         0.0760
     32 H12         3.0116    0.3649    3.0469 H         1 <0>         0.0741
     33 H13         3.6486   -1.2144    2.5287 H         1 <0>         0.0702
     34 H14         3.4685   -2.1129    4.9036 H         1 <0>         0.0972
     35 H15         2.9568   -0.4693    5.3563 H         1 <0>         0.1043
     36 H16         0.8243   -1.3763    6.2386 H         1 <0>         0.1365
     37 H17         1.3360   -3.0199    5.7859 H         1 <0>         0.1321
     38 H18         3.3099   -0.9140    8.8060 H         1 <0>         0.1248
     39 H19         3.4039   -0.3258    7.1287 H         1 <0>         0.1244
     40 H20         1.8650   -0.2354    8.0187 H         1 <0>         0.1235
     41 H21         1.2865   -3.8211    8.0015 H         1 <0>         0.1240
     42 H22         2.0944   -2.9206    9.3070 H         1 <0>         0.1253
     43 H23         0.6495   -2.2419    8.5197 H         1 <0>         0.1234
     44 H24        -1.5759    1.3396   -1.4967 H         1 <0>         0.4033
     45 H25        -2.2668    1.0655    0.0101 H         1 <0>         0.4025
     46 H26         3.2466   -2.7031    7.2306 H         1 <0>         0.4266
@<TRIPOS>BOND
     1    1    2 1
     2    1   22 1
     3    1   23 1
     4    1   24 1
     5    2    7 ar
     6    2    3 ar
     7    3    4 ar
     8    3   25 1
     9    4    5 ar
    10    4   21 1
    11    5    6 ar
    12    5   26 1
    13    6    7 ar
    14    6    9 1
    15    7    8 1
    16    8   27 1
    17    8   28 1
    18    8   29 1
    19    9   10 2
    20    9   11 2
    21    9   12 1
    22   12   13 1
    23   12   30 1
    24   13   14 1
    25   13   15 1
    26   13   16 1
    27   15   31 1
    28   15   32 1
    29   15   33 1
    30   16   17 1
    31   16   34 1
    32   16   35 1
    33   17   18 1
    34   17   36 1
    35   17   37 1
    36   18   19 1
    37   18   20 1
    38   18   46 1
    39   19   38 1
    40   19   39 1
    41   19   40 1
    42   20   41 1
    43   20   42 1
    44   20   43 1
    45   21   44 1
    46   21   45 1
@<TRIPOS>MOLECULE
ZINC54111745
   41    42     0     0     0
SMALL
USER_CHARGES

@<TRIPOS>ATOM
      1 C1         -0.0167    1.3784    0.0096 C.ar      1 <0>        -0.1715
      2 C2          1.1697    2.0893    0.0021 C.ar      1 <0>        -0.0511
      3 C3          2.3774    1.4200   -0.0130 C.ar      1 <0>        -0.1937
      4 C4          2.3998    0.0309   -0.0206 C.ar      1 <0>         0.2350
      5 C5          1.2066   -0.6799   -0.0130 C.ar      1 <0>        -0.1896
      6 C6          0.0021   -0.0041    0.0020 C.ar      1 <0>        -0.0541
      7 C7          1.2261   -2.1868   -0.0217 C.3       1 <0>        -0.5576
      8 S1          1.2505   -2.8011    1.6849 S.o2      1 <0>         2.5926
      9 O1          2.4871   -2.4753    2.3047 O.2       1 <0>        -0.9404
     10 O2          0.0181   -2.5074    2.3285 O.2       1 <0>        -0.9313
     11 N1          1.2705   -4.4509    1.5431 N.pl3     1 <0>        -1.1219
     12 C8          2.4234   -5.1199    0.9351 C.3       1 <0>         0.0892
     13 C9          2.3725   -6.6151    1.2552 C.3       1 <0>        -0.0133
     14 N2          3.5285   -7.2860    0.6455 N.4       1 <0>        -0.3933
     15 C10         4.7809   -6.8673    1.3255 C.3       1 <0>        -0.0136
     16 C11         5.7657   -8.0165    0.9935 C.3       1 <0>        -0.1451
     17 C12         4.8651   -9.2716    1.0529 C.3       1 <0>        -0.1456
     18 C13         3.4320   -8.7486    0.8430 C.3       1 <0>        -0.0078
     19 N3          3.6196   -0.6494   -0.0363 N.pl3     1 <0>        -0.8689
     20 H1         -0.9598    1.9044    0.0260 H         1 <0>         0.1304
     21 H2          1.1515    3.1691    0.0077 H         1 <0>         0.1317
     22 H3          3.3034    1.9757   -0.0192 H         1 <0>         0.1301
     23 H4         -0.9261   -0.5561    0.0079 H         1 <0>         0.1302
     24 H5          0.3359   -2.5587   -0.5291 H         1 <0>         0.1456
     25 H6          2.1156   -2.5356   -0.5462 H         1 <0>         0.1258
     26 H7          0.5190   -4.9743    1.8626 H         1 <0>         0.4252
     27 H8          2.3973   -4.9785   -0.1454 H         1 <0>         0.0862
     28 H9          3.3434   -4.6937    1.3352 H         1 <0>         0.1013
     29 H10         2.3986   -6.7565    2.3356 H         1 <0>         0.1405
     30 H11         1.4525   -7.0413    0.8551 H         1 <0>         0.1398
     31 H12         5.1416   -5.9222    0.9195 H         1 <0>         0.1379
     32 H13         4.6273   -6.7913    2.4019 H         1 <0>         0.1378
     33 H14         6.1845   -7.8892   -0.0048 H         1 <0>         0.0993
     34 H15         6.5573   -8.0740    1.7406 H         1 <0>         0.1184
     35 H16         5.1338   -9.9680    0.2586 H         1 <0>         0.1066
     36 H17         4.9528   -9.7544    2.0262 H         1 <0>         0.1050
     37 H18         2.8251   -8.9653    1.7220 H         1 <0>         0.1325
     38 H19         2.9923   -9.2141   -0.0391 H         1 <0>         0.1346
     39 H20         4.4523   -0.1519   -0.0419 H         1 <0>         0.4058
     40 H21         3.6341   -1.6192   -0.0416 H         1 <0>         0.3889
     41 H22         3.5771   -7.0703   -0.3390 H         1 <0>         0.4283
@<TRIPOS>BOND
     1    1    6 ar
     2    1    2 ar
     3    1   20 1
     4    2    3 ar
     5    2   21 1
     6    3    4 ar
     7    3   22 1
     8    4    5 ar
     9    4   19 1
    10    5    6 ar
    11    5    7 1
    12    6   23 1
    13    7    8 1
    14    7   24 1
    15    7   25 1
    16    8    9 2
    17    8   10 2
    18    8   11 1
    19   11   12 1
    20   11   26 1
    21   12   13 1
    22   12   27 1
    23   12   28 1
    24   13   14 1
    25   13   29 1
    26   13   30 1
    27   14   18 1
    28   14   15 1
    29   14   41 1
    30   15   16 1
    31   15   31 1
    32   15   32 1
    33   16   17 1
    34   16   33 1
    35   16   34 1
    36   17   18 1
    37   17   35 1
    38   17   36 1
    39   18   37 1
    40   18   38 1
    41   19   39 1
    42   19   40 1
@<TRIPOS>MOLECULE
ZINC63171184
   36    36     0     0     0
SMALL
USER_CHARGES

@<TRIPOS>ATOM
      1 C1         -0.0187    1.5258    0.0104 C.3       1 <0>        -0.1856
      2 C2          0.0021   -0.0041    0.0020 C.3       1 <0>         0.0308
      3 H1          0.5123   -0.3556   -0.8948 H         1 <0>         0.1471
      4 C3          0.7421   -0.5109    1.2415 C.3       1 <0>        -0.1589
      5 C4          0.8719   -2.0337    1.1708 C.3       1 <0>         0.1007
      6 N1          1.5805   -2.5190    2.3577 N.pl3     1 <0>        -1.1177
      7 S1          1.5453   -4.1294    2.7423 S.o2      1 <0>         2.6995
      8 O1          2.3360   -4.2848    3.9128 O.2       1 <0>        -0.9384
      9 O2          0.1836   -4.5312    2.6839 O.2       1 <0>        -0.9516
     10 C5          2.3805   -4.9914    1.4523 C.ar      1 <0>        -0.7205
     11 C6          1.6731   -5.4427    0.3532 C.ar      1 <0>         0.0266
     12 C7          2.3250   -6.1193   -0.6595 C.ar      1 <0>        -0.2234
     13 C8          3.6909   -6.3457   -0.5737 C.ar      1 <0>         0.2167
     14 C9          4.3992   -5.8915    0.5301 C.ar      1 <0>        -0.1498
     15 C10         3.7427   -5.2105    1.5382 C.ar      1 <0>         0.0504
     16 Br1         6.2611   -6.1983    0.6518 Br        1 <0>        -0.0087
     17 O3          4.3344   -7.0115   -1.5687 O.3       1 <0>        -0.2913
     18 C11         3.5420   -7.4501   -2.6740 C.3       1 <0>         0.0185
     19 N2         -1.3761   -0.5125    0.0124 N.4       1 <0>        -0.6415
     20 H2          1.0039    1.9031    0.0027 H         1 <0>         0.1087
     21 H3         -0.5459    1.8868   -0.8726 H         1 <0>         0.0861
     22 H4         -0.5289    1.8773    0.9072 H         1 <0>         0.0846
     23 H5          1.7350   -0.0630    1.2804 H         1 <0>         0.1242
     24 H6          0.1838   -0.2350    2.1361 H         1 <0>         0.1028
     25 H7         -0.1210   -2.4817    1.1320 H         1 <0>         0.0731
     26 H8          1.4302   -2.3096    0.2763 H         1 <0>         0.0822
     27 H9          2.0702   -1.8971    2.9183 H         1 <0>         0.4274
     28 H10         0.6096   -5.2664    0.2866 H         1 <0>         0.1466
     29 H11         1.7716   -6.4720   -1.5173 H         1 <0>         0.1499
     30 H12         4.2938   -4.8532    2.3956 H         1 <0>         0.1582
     31 H13         2.7682   -8.1308   -2.3188 H         1 <0>         0.0661
     32 H14         3.0762   -6.5883   -3.1518 H         1 <0>         0.0633
     33 H15         4.1769   -7.9659   -3.3943 H         1 <0>         0.1147
     34 H16        -1.8641   -0.1783   -0.8050 H         1 <0>         0.4389
     35 H17        -1.3624   -1.5214    0.0069 H         1 <0>         0.4341
     36 H18        -1.8484   -0.1871    0.8426 H         1 <0>         0.4360
@<TRIPOS>BOND
     1    1    2 1
     2    1   20 1
     3    1   21 1
     4    1   22 1
     5    2    3 1
     6    2    4 1
     7    2   19 1
     8    4    5 1
     9    4   23 1
    10    4   24 1
    11    5    6 1
    12    5   25 1
    13    5   26 1
    14    6    7 1
    15    6   27 1
    16    7    8 2
    17    7    9 2
    18    7   10 1
    19   10   15 ar
    20   10   11 ar
    21   11   12 ar
    22   11   28 1
    23   12   13 ar
    24   12   29 1
    25   13   14 ar
    26   13   17 1
    27   14   15 ar
    28   14   16 1
    29   15   30 1
    30   17   18 1
    31   18   31 1
    32   18   32 1
    33   18   33 1
    34   19   34 1
    35   19   35 1
    36   19   36 1
@<TRIPOS>MOLECULE
ZINC36288791
   35    36     0     0     0
SMALL
USER_CHARGES

@<TRIPOS>ATOM
      1 C1         -0.0184    1.5028    0.0103 C.3       1 <0>        -0.1085
      2 C2          0.0021   -0.0041    0.0020 C.ar      1 <0>        -0.1681
      3 C3          0.0057   -0.6876   -1.1988 C.ar      1 <0>        -0.0489
      4 C4          0.0244   -2.0688   -1.2109 C.ar      1 <0>        -0.2077
      5 C5          0.0397   -2.7756   -0.0142 C.ar      1 <0>         0.1764
      6 C6          0.0361   -2.0923    1.1934 C.ar      1 <0>        -0.2124
      7 C7          0.0230   -0.7044    1.2019 C.ar      1 <0>         0.2343
      8 N1          0.0255   -0.0127    2.4153 N.pl3     1 <0>        -0.8745
      9 N2          0.0581   -4.1721   -0.0273 N.pl3     1 <0>        -1.0536
     10 S1          1.0779   -4.9771   -1.0540 S.o2      1 <0>         2.6278
     11 O1          0.8163   -6.3539   -0.8192 O.2       1 <0>        -0.9377
     12 O2          0.8363   -4.4012   -2.3304 O.2       1 <0>        -0.9293
     13 C8          2.7462   -4.5518   -0.4824 C.3       1 <0>        -0.6116
     14 H1          2.9024   -4.9451    0.5221 H         1 <0>         0.1629
     15 C9          2.9187   -3.0239   -0.4746 C.3       1 <0>        -0.1172
     16 C10         4.4138   -2.6625   -0.3024 C.3       1 <0>        -0.5664
     17 S2          5.2678   -4.1140   -1.0413 S.o2      1 <0>         2.3856
     18 O3          6.0289   -4.7652   -0.0333 O.2       1 <0>        -0.9269
     19 O4          5.9032   -3.7121   -2.2471 O.2       1 <0>        -0.9268
     20 C11         3.8031   -5.1532   -1.4523 C.3       1 <0>        -0.5742
     21 H2          1.0042    1.8801    0.0026 H         1 <0>         0.0676
     22 H3         -0.5455    1.8639   -0.8728 H         1 <0>         0.0698
     23 H4         -0.5286    1.8543    0.9071 H         1 <0>         0.0592
     24 H5         -0.0065   -0.1408   -2.1301 H         1 <0>         0.1314
     25 H6          0.0268   -2.6000   -2.1512 H         1 <0>         0.1585
     26 H7          0.0479   -2.6391    2.1247 H         1 <0>         0.1281
     27 H8          0.0126    0.9572    2.4206 H         1 <0>         0.4010
     28 H9          0.0401   -0.5021    3.2526 H         1 <0>         0.3992
     29 H10        -0.5264   -4.6704    0.5651 H         1 <0>         0.4292
     30 H11         2.5533   -2.6136   -1.4160 H         1 <0>         0.1073
     31 H12         2.3464   -2.5993    0.3503 H         1 <0>         0.1167
     32 H13         4.6567   -1.7515   -0.8493 H         1 <0>         0.1502
     33 H14         4.6677   -2.5605    0.7527 H         1 <0>         0.1443
     34 H15         3.9902   -6.2036   -1.2292 H         1 <0>         0.1600
     35 H16         3.5045   -5.0203   -2.4921 H         1 <0>         0.1541
@<TRIPOS>BOND
     1    1    2 1
     2    1   21 1
     3    1   22 1
     4    1   23 1
     5    2    7 ar
     6    2    3 ar
     7    3    4 ar
     8    3   24 1
     9    4    5 ar
    10    4   25 1
    11    5    6 ar
    12    5    9 1
    13    6    7 ar
    14    6   26 1
    15    7    8 1
    16    8   27 1
    17    8   28 1
    18    9   10 1
    19    9   29 1
    20   10   11 2
    21   10   12 2
    22   10   13 1
    23   13   14 1
    24   13   20 1
    25   13   15 1
    26   15   16 1
    27   15   30 1
    28   15   31 1
    29   16   17 1
    30   16   32 1
    31   16   33 1
    32   17   18 2
    33   17   19 2
    34   17   20 1
    35   20   34 1
    36   20   35 1
@<TRIPOS>MOLECULE
ZINC40335515
   27    28     0     0     0
SMALL
USER_CHARGES

@<TRIPOS>ATOM
      1 C1         -0.0163    1.3510    0.0095 C.2       1 <0>        -0.1310
      2 C2          1.1834    2.0381    0.0017 C.2       1 <0>        -0.1153
      3 C3          2.3432    1.3350   -0.0131 C.2       1 <0>        -0.1703
      4 S1          1.7534   -0.3501   -0.0166 S.3       1 <0>         0.1191
      5 C4          0.0021   -0.0041    0.0020 C.2       1 <0>        -0.1638
      6 C5         -1.1557   -0.9688    0.0086 C.3       1 <0>         0.2080
      7 N1         -1.5449   -1.2739   -1.3704 N.am      1 <0>        -0.7287
      8 C6         -2.5654   -2.1208   -1.6108 C.2       1 <0>         0.5014
      9 O1         -3.1615   -2.6303   -0.6856 O.2       1 <0>        -0.5008
     10 C7         -2.9657   -2.4348   -3.0294 C.3       1 <0>         0.1193
     11 N2         -4.0912   -3.3726   -3.0230 N.pl3     1 <0>        -0.3750
     12 C8         -5.2775   -3.2090   -3.6318 C.2       1 <0>         0.2815
     13 N3         -6.0108   -4.2657   -3.3895 N.2       1 <0>        -0.5687
     14 C9         -5.3267   -5.1260   -2.6291 C.2       1 <0>         0.4700
     15 N4         -4.1403   -4.6223   -2.3842 N.2       1 <0>        -0.3437
     16 N5         -5.7952   -6.3604   -2.1754 N.pl3     1 <0>        -0.8261
     17 Br1         4.1230    1.9737   -0.0272 Br        1 <0>         0.0448
     18 H1         -0.9542    1.8862    0.0258 H         1 <0>         0.1451
     19 H2          1.1969    3.1180    0.0070 H         1 <0>         0.1452
     20 H3         -0.8599   -1.8878    0.5145 H         1 <0>         0.0883
     21 H4         -1.9992   -0.5204    0.5334 H         1 <0>         0.0966
     22 H5         -1.0681   -0.8665   -2.1104 H         1 <0>         0.4051
     23 H6         -3.2614   -1.5157   -3.5353 H         1 <0>         0.1322
     24 H7         -2.1221   -2.8832   -3.5542 H         1 <0>         0.1191
     25 H8         -5.5749   -2.3531   -4.2195 H         1 <0>         0.2206
     26 H9         -6.6886   -6.6562   -2.4104 H         1 <0>         0.4139
     27 H10        -5.2274   -6.9222   -1.6251 H         1 <0>         0.4135
@<TRIPOS>BOND
     1    1    5 2
     2    1    2 1
     3    1   18 1
     4    2    3 2
     5    2   19 1
     6    3    4 1
     7    3   17 1
     8    4    5 1
     9    5    6 1
    10    6    7 1
    11    6   20 1
    12    6   21 1
    13    7    8 am
    14    7   22 1
    15    8    9 2
    16    8   10 1
    17   10   11 1
    18   10   23 1
    19   10   24 1
    20   11   15 1
    21   11   12 1
    22   12   13 2
    23   12   25 1
    24   13   14 1
    25   14   15 2
    26   14   16 1
    27   16   26 1
    28   16   27 1
@<TRIPOS>MOLECULE
ZINC44687894
   31    32     0     0     0
SMALL
USER_CHARGES

@<TRIPOS>ATOM
      1 C1         -0.0184    1.5028    0.0103 C.3       1 <0>        -0.0912
      2 C2          0.0021   -0.0041    0.0020 C.2       1 <0>         0.0787
      3 C3         -1.0767   -0.8104    0.0026 C.2       1 <0>        -0.2843
      4 C4         -0.6269   -2.1430   -0.0073 C.2       1 <0>         0.0942
      5 N1          0.6760   -2.1297   -0.0134 N.2       1 <0>        -0.2964
      6 O1          1.0981   -0.7779   -0.0131 O.3       1 <0>        -0.0722
      7 C5         -1.4995   -3.3716   -0.0097 C.3       1 <0>         0.1904
      8 N2         -1.6912   -3.8317   -1.3873 N.pl3     1 <0>        -1.1109
      9 S1         -2.2846   -5.3501   -1.6781 S.o2      1 <0>         2.7027
     10 O2         -2.3794   -5.4857   -3.0895 O.2       1 <0>        -0.9383
     11 O3         -1.5244   -6.2437   -0.8763 O.2       1 <0>        -0.9367
     12 C6         -3.9326   -5.3934   -1.0562 C.ar      1 <0>        -0.8211
     13 C7         -4.1669   -5.7701    0.2556 C.ar      1 <0>         0.2706
     14 C8         -5.4600   -5.8051    0.7458 C.ar      1 <0>        -0.2627
     15 C9         -6.5237   -5.4618   -0.0786 C.ar      1 <0>         0.3233
     16 C10        -6.2863   -5.0839   -1.3938 C.ar      1 <0>        -0.2637
     17 C11        -4.9911   -5.0452   -1.8783 C.ar      1 <0>         0.2760
     18 F1         -4.7592   -4.6723   -3.1560 F         1 <0>        -0.1021
     19 N3         -7.8300   -5.4969    0.4141 N.pl3     1 <0>        -0.8491
     20 F2         -3.1318   -6.1039    1.0571 F         1 <0>        -0.1025
     21 H1          1.0042    1.8801    0.0026 H         1 <0>         0.0867
     22 H2         -0.5455    1.8639   -0.8728 H         1 <0>         0.0979
     23 H3         -0.5286    1.8543    0.9071 H         1 <0>         0.0980
     24 H4         -2.1079   -0.4896    0.0097 H         1 <0>         0.1626
     25 H5         -1.0205   -4.1586    0.5729 H         1 <0>         0.1073
     26 H6         -2.4670   -3.1310    0.4310 H         1 <0>         0.0943
     27 H7         -1.4705   -3.2469   -2.1291 H         1 <0>         0.4241
     28 H8         -5.6423   -6.0997    1.7688 H         1 <0>         0.1517
     29 H9         -7.1120   -4.8168   -2.0367 H         1 <0>         0.1513
     30 H10        -7.9950   -5.7613    1.3326 H         1 <0>         0.4106
     31 H11        -8.5724   -5.2570   -0.1623 H         1 <0>         0.4106
@<TRIPOS>BOND
     1    1    2 1
     2    1   21 1
     3    1   22 1
     4    1   23 1
     5    2    6 1
     6    2    3 2
     7    3    4 1
     8    3   24 1
     9    4    5 2
    10    4    7 1
    11    5    6 1
    12    7    8 1
    13    7   25 1
    14    7   26 1
    15    8    9 1
    16    8   27 1
    17    9   10 2
    18    9   11 2
    19    9   12 1
    20   12   17 ar
    21   12   13 ar
    22   13   14 ar
    23   13   20 1
    24   14   15 ar
    25   14   28 1
    26   15   16 ar
    27   15   19 1
    28   16   17 ar
    29   16   29 1
    30   17   18 1
    31   19   30 1
    32   19   31 1
@<TRIPOS>MOLECULE
ZINC07098488
   32    34     0     0     0
SMALL
USER_CHARGES

@<TRIPOS>ATOM
      1 C1          0.1579    1.3378    0.7202 C.ar      1 <0>        -0.1321
      2 C2          1.3415    2.0413    0.5495 C.ar      1 <0>        -0.1018
      3 C3          2.5026    1.3873    0.1999 C.ar      1 <0>        -0.1173
      4 C4          2.4942    0.0084    0.0154 C.ar      1 <0>         0.0970
      5 C5          1.2957   -0.7018    0.1890 C.ar      1 <0>        -0.0669
      6 C6          0.1293   -0.0280    0.5419 C.ar      1 <0>        -0.0801
      7 C7          1.6209   -2.1165   -0.0749 C.2       1 <0>        -0.2073
      8 C8          2.9529   -2.1566   -0.3798 C.2       1 <0>         0.1735
      9 N1          3.4716   -0.9034   -0.3273 N.pl3     1 <0>        -0.4558
     10 C9          4.8717   -0.5663   -0.5961 C.3       1 <0>         0.0855
     11 C10         5.6346   -0.5163    0.7025 C.2       1 <0>         0.4931
     12 O1          5.0649   -0.7403    1.7495 O.2       1 <0>        -0.5092
     13 N2          6.9500   -0.2229    0.7004 N.am      1 <0>        -0.8525
     14 C11         0.7000   -3.2518   -0.0210 C.2       1 <0>         0.1535
     15 C12         1.1242   -4.4497    0.4671 C.2       1 <0>        -0.2551
     16 C13         2.3539   -4.7842    1.1097 C.2       1 <0>         0.5542
     17 O2          3.2141   -3.9421    1.2945 O.2       1 <0>        -0.4726
     18 N3          2.5312   -6.0348    1.4988 N.am      1 <0>        -0.6871
     19 C14         1.5761   -6.9689    1.2939 C.2       1 <0>         0.5542
     20 O3          1.5877   -8.1489    1.5901 O.2       1 <0>        -0.4198
     21 S1          0.2895   -6.0303    0.4846 S.3       1 <0>        -0.0579
     22 H1         -0.7441    1.8627    0.9984 H         1 <0>         0.1268
     23 H2          1.3527    3.1119    0.6917 H         1 <0>         0.1275
     24 H3          3.4184    1.9446    0.0688 H         1 <0>         0.1170
     25 H4         -0.7933   -0.5735    0.6754 H         1 <0>         0.1259
     26 H5          3.5081   -3.0498   -0.6254 H         1 <0>         0.1755
     27 H6          5.3095   -1.3241   -1.2459 H         1 <0>         0.1254
     28 H7          4.9237    0.4062   -1.0858 H         1 <0>         0.1221
     29 H8          7.4057   -0.0438   -0.1369 H         1 <0>         0.4029
     30 H9          7.4411   -0.1907    1.5363 H         1 <0>         0.4077
     31 H10        -0.3164   -3.1396   -0.3685 H         1 <0>         0.1546
     32 H11         3.3590   -6.2860    1.9375 H         1 <0>         0.4191
@<TRIPOS>BOND
     1    1    6 ar
     2    1    2 ar
     3    1   22 1
     4    2    3 ar
     5    2   23 1
     6    3    4 ar
     7    3   24 1
     8    4    9 1
     9    4    5 ar
    10    5    6 ar
    11    5    7 1
    12    6   25 1
    13    7    8 2
    14    7   14 1
    15    8    9 1
    16    8   26 1
    17    9   10 1
    18   10   11 1
    19   10   27 1
    20   10   28 1
    21   11   12 2
    22   11   13 am
    23   13   29 1
    24   13   30 1
    25   14   15 2
    26   14   31 1
    27   15   21 1
    28   15   16 1
    29   16   17 2
    30   16   18 am
    31   18   19 am
    32   18   32 1
    33   19   20 2
    34   19   21 1
@<TRIPOS>MOLECULE
ZINC66625193
   36    38     0     0     0
SMALL
USER_CHARGES

@<TRIPOS>ATOM
      1 C1         -0.0127    1.0858    0.0080 C.3       1 <0>         0.0684
      2 N1         -0.7213    1.5711   -1.1789 N.pl3     1 <0>        -0.4890
      3 C2         -0.9309    2.8878   -1.5075 C.2       1 <0>         0.2680
      4 N2         -1.5904    2.9409   -2.6197 N.2       1 <0>        -0.2743
      5 N3         -1.8293    1.6279   -3.0484 N.pl3     1 <0>        -0.4683
      6 C3         -1.2737    0.8013   -2.1379 C.2       1 <0>         0.4710
      7 S1         -1.2741   -0.9099   -2.1889 S.2       1 <0>        -0.5584
      8 C4         -0.4692    4.0763   -0.7042 C.3       1 <0>         0.2027
      9 N4         -0.8817    5.3105   -1.3770 N.am      1 <0>        -0.7328
     10 C5         -0.5759    6.5070   -0.8371 C.2       1 <0>         0.5182
     11 O1          0.0407    6.5618    0.2058 O.2       1 <0>        -0.5186
     12 C6         -1.0002    7.7766   -1.5293 C.3       1 <0>        -0.0610
     13 C7         -0.5385    8.9651   -0.7260 C.2       1 <0>        -0.1561
     14 C8         -1.2550    9.6382    0.1876 C.2       1 <0>         0.0735
     15 N5         -0.5049   10.6568    0.7111 N.pl3     1 <0>        -0.5893
     16 H1         -0.8081   11.2805    1.3893 H         1 <0>         0.4200
     17 C9          0.7442   10.6635    0.1318 C.ar      1 <0>         0.1217
     18 C10         0.7802    9.6010   -0.7897 C.ar      1 <0>        -0.1002
     19 C11         1.9384    9.3594   -1.5305 C.ar      1 <0>        -0.0398
     20 C12         3.0351   10.1553   -1.3550 C.ar      1 <0>        -0.1754
     21 C13         3.0070   11.2043   -0.4436 C.ar      1 <0>         0.1196
     22 C14         1.8696   11.4648    0.2929 C.ar      1 <0>        -0.1665
     23 F1          4.1010   11.9804   -0.2825 F         1 <0>        -0.1375
     24 H2          0.0021   -0.0041    0.0020 H         1 <0>         0.1228
     25 H3          1.0099    1.4631    0.0003 H         1 <0>         0.0955
     26 H4         -0.5229    1.4373    0.9048 H         1 <0>         0.0954
     27 H5         -2.3028    1.3627   -3.8524 H         1 <0>         0.4716
     28 H6         -0.9146    4.0381    0.2900 H         1 <0>         0.1101
     29 H7          0.6171    4.0558   -0.6166 H         1 <0>         0.1104
     30 H8         -1.3748    5.2667   -2.2111 H         1 <0>         0.4139
     31 H9         -0.5548    7.8147   -2.5234 H         1 <0>         0.1061
     32 H10        -2.0865    7.7971   -1.6168 H         1 <0>         0.1063
     33 H11        -2.2728    9.4102    0.4681 H         1 <0>         0.1729
     34 H12         1.9676    8.5457   -2.2400 H         1 <0>         0.1295
     35 H13         3.9307    9.9677   -1.9286 H         1 <0>         0.1361
     36 H14         1.8568   12.2814    0.9997 H         1 <0>         0.1335
@<TRIPOS>BOND
     1    1   24 1
     2    1   25 1
     3    1   26 1
     4    1    2 1
     5    2    6 1
     6    2    3 1
     7    3    8 1
     8    3    4 2
     9    4    5 1
    10    5    6 1
    11    5   27 1
    12    6    7 2
    13    8    9 1
    14    8   28 1
    15    8   29 1
    16    9   10 am
    17    9   30 1
    18   10   11 2
    19   10   12 1
    20   12   13 1
    21   12   31 1
    22   12   32 1
    23   13   18 1
    24   13   14 2
    25   14   15 1
    26   14   33 1
    27   15   16 1
    28   15   17 1
    29   17   22 ar
    30   17   18 ar
    31   18   19 ar
    32   19   20 ar
    33   19   34 1
    34   20   21 ar
    35   20   35 1
    36   21   22 ar
    37   21   23 1
    38   22   36 1
@<TRIPOS>MOLECULE
ZINC37192394
   34    35     0     0     0
SMALL
USER_CHARGES

@<TRIPOS>ATOM
      1 C1         -0.0168    1.3901    0.0097 C.ar      1 <0>        -0.0077
      2 C2          1.1902    2.0652    0.0018 C.ar      1 <0>        -0.2173
      3 C3          2.3745    1.3366   -0.0134 C.ar      1 <0>         0.4008
      4 N1          2.3550    0.0132   -0.0204 N.ar      1 <0>        -0.5303
      5 C4          1.2225   -0.6637   -0.0132 C.ar      1 <0>         0.1412
      6 C5          0.0021   -0.0041    0.0020 C.ar      1 <0>        -0.2167
      7 S1         -1.5051   -0.9167    0.0121 S.3       1 <0>        -0.0226
      8 C6         -0.9690   -2.6496   -0.0025 C.3       1 <0>        -0.1574
      9 C7         -2.1778   -3.5495    0.0046 C.2       1 <0>         0.5364
     10 O1         -3.2913   -3.0691    0.0183 O.2       1 <0>        -0.5090
     11 N2         -2.0215   -4.8881   -0.0041 N.am      1 <0>        -0.7139
     12 C8         -3.1966   -5.7629    0.0029 C.3       1 <0>         0.1428
     13 H1         -4.0036   -5.2997   -0.5648 H         1 <0>         0.1172
     14 C9         -3.6537   -6.0071    1.4506 C.3       1 <0>        -0.1418
     15 C10        -4.6768   -7.1676    1.4923 C.3       1 <0>        -0.5734
     16 S2         -4.1921   -8.1858    0.0395 S.o2      1 <0>         2.3791
     17 O2         -5.2644   -8.2012   -0.8928 O.2       1 <0>        -0.9270
     18 O3         -3.6464   -9.4152    0.4979 O.2       1 <0>        -0.9303
     19 C11        -2.8321   -7.1372   -0.6278 C.3       1 <0>        -0.5967
     20 N3          3.5956    2.0073   -0.0220 N.pl3     1 <0>        -0.8505
     21 H2         -0.9520    1.9301    0.0259 H         1 <0>         0.1410
     22 H3          1.2127    3.1450    0.0070 H         1 <0>         0.1384
     23 H4          1.2457   -1.7435   -0.0192 H         1 <0>         0.1516
     24 H5         -0.3796   -2.8400   -0.8994 H         1 <0>         0.1204
     25 H6         -0.3619   -2.8495    0.8804 H         1 <0>         0.1204
     26 H7         -1.1309   -5.2723   -0.0150 H         1 <0>         0.4091
     27 H8         -2.7902   -6.2637    2.0643 H         1 <0>         0.0912
     28 H9         -4.1176   -5.1014    1.8412 H         1 <0>         0.1040
     29 H10        -4.5761   -7.7386    2.4153 H         1 <0>         0.1460
     30 H11        -5.6933   -6.7910    1.3785 H         1 <0>         0.1440
     31 H12        -2.8667   -7.0930   -1.7164 H         1 <0>         0.1496
     32 H13        -1.8593   -7.4849   -0.2802 H         1 <0>         0.1464
     33 H14         3.6163    2.9771   -0.0173 H         1 <0>         0.4099
     34 H15         4.4251    1.5046   -0.0326 H         1 <0>         0.4052
@<TRIPOS>BOND
     1    1    6 ar
     2    1    2 ar
     3    1   21 1
     4    2    3 ar
     5    2   22 1
     6    3    4 ar
     7    3   20 1
     8    4    5 ar
     9    5    6 ar
    10    5   23 1
    11    6    7 1
    12    7    8 1
    13    8    9 1
    14    8   24 1
    15    8   25 1
    16    9   10 2
    17    9   11 am
    18   11   12 1
    19   11   26 1
    20   12   13 1
    21   12   19 1
    22   12   14 1
    23   14   15 1
    24   14   27 1
    25   14   28 1
    26   15   16 1
    27   15   29 1
    28   15   30 1
    29   16   17 2
    30   16   18 2
    31   16   19 1
    32   19   31 1
    33   19   32 1
    34   20   33 1
    35   20   34 1
@<TRIPOS>MOLECULE
ZINC42525456
   36    36     0     0     0
SMALL
USER_CHARGES

@<TRIPOS>ATOM
      1 C1          0.8653    1.2492    0.1001 C.3       1 <0>         0.0991
      2 N1          0.4638   -0.1589    0.1468 N.pl3     1 <0>        -0.6827
      3 C2          0.4718   -0.8810    1.4215 C.3       1 <0>         0.1228
      4 C3         -0.9110   -0.7870    2.0695 C.3       1 <0>         0.0846
      5 H1         -1.6558   -1.2184    1.4007 H         1 <0>         0.1032
      6 C4         -0.9075   -1.5555    3.3925 C.3       1 <0>         0.0280
      7 O1         -2.2272   -1.5665    3.9405 O.3       1 <0>        -0.3822
      8 C5         -2.3346   -2.2629    5.1837 C.3       1 <0>         0.0295
      9 O2         -1.2294    0.5841    2.3160 O.3       1 <0>        -0.5464
     10 C6          0.0734   -0.8131   -1.0239 C.ar      1 <0>         0.2683
     11 C7         -1.2646   -0.8330   -1.3973 C.ar      1 <0>        -0.1450
     12 C8         -1.6471   -1.4801   -2.5555 C.ar      1 <0>        -0.0536
     13 C9         -0.6999   -2.1085   -3.3434 C.ar      1 <0>        -0.1433
     14 C10         0.6326   -2.0910   -2.9746 C.ar      1 <0>        -0.0147
     15 C11         1.0228   -1.4402   -1.8204 C.ar      1 <0>        -0.6860
     16 S1          2.7221   -1.4118   -1.3554 S.o2      1 <0>         2.7069
     17 O3          2.7714   -1.7511    0.0236 O.2       1 <0>        -0.9559
     18 O4          3.4267   -2.1470   -2.3465 O.2       1 <0>        -0.9714
     19 N2          3.2364    0.1577   -1.4753 N.pl3     1 <0>        -1.2476
     20 H2          1.9386    1.3153   -0.0780 H         1 <0>         0.0488
     21 H3          0.3315    1.7526   -0.7060 H         1 <0>         0.0583
     22 H4          0.6243    1.7274    1.0495 H         1 <0>         0.0707
     23 H5          0.7198   -1.9275    1.2447 H         1 <0>         0.0881
     24 H6          1.2148   -0.4386    2.0850 H         1 <0>         0.0828
     25 H7         -0.5786   -2.5797    3.2169 H         1 <0>         0.0591
     26 H8         -0.2274   -1.0705    4.0927 H         1 <0>         0.0537
     27 H9         -3.3664   -2.2256    5.5331 H         1 <0>         0.0873
     28 H10        -2.0352   -3.3018    5.0452 H         1 <0>         0.0414
     29 H11        -1.6841   -1.7925    5.9210 H         1 <0>         0.0414
     30 H12        -0.6072    1.0326    2.9049 H         1 <0>         0.3688
     31 H13        -2.0049   -0.3431   -0.7821 H         1 <0>         0.1361
     32 H14        -2.6871   -1.4960   -2.8463 H         1 <0>         0.1333
     33 H15        -1.0017   -2.6143   -4.2487 H         1 <0>         0.1351
     34 H16         1.3696   -2.5833   -3.5917 H         1 <0>         0.1457
     35 H17         2.6421    0.8370   -1.8307 H         1 <0>         0.4153
     36 H18         4.1320    0.3977   -1.1903 H         1 <0>         0.4204
@<TRIPOS>BOND
     1    1    2 1
     2    1   20 1
     3    1   21 1
     4    1   22 1
     5    2    3 1
     6    2   10 1
     7    3    4 1
     8    3   23 1
     9    3   24 1
    10    4    5 1
    11    4    6 1
    12    4    9 1
    13    6    7 1
    14    6   25 1
    15    6   26 1
    16    7    8 1
    17    8   27 1
    18    8   28 1
    19    8   29 1
    20    9   30 1
    21   10   15 ar
    22   10   11 ar
    23   11   12 ar
    24   11   31 1
    25   12   13 ar
    26   12   32 1
    27   13   14 ar
    28   13   33 1
    29   14   15 ar
    30   14   34 1
    31   15   16 1
    32   16   17 2
    33   16   18 2
    34   16   19 1
    35   19   35 1
    36   19   36 1
@<TRIPOS>MOLECULE
ZINC49588761
   36    37     0     0     0
SMALL
USER_CHARGES

@<TRIPOS>ATOM
      1 C1         -0.0168    1.3911    0.0097 C.ar      1 <0>        -0.0542
      2 C2          1.1697    2.0946    0.0021 C.ar      1 <0>        -0.1513
      3 C3          2.3789    1.4182   -0.0135 C.ar      1 <0>         0.1271
      4 C4          2.4033    0.0325   -0.0212 C.ar      1 <0>        -0.1453
      5 C5          1.2228   -0.6805   -0.0137 C.ar      1 <0>        -0.0450
      6 C6          0.0021   -0.0041    0.0020 C.ar      1 <0>         0.0058
      7 C7         -1.2267   -0.7394    0.0103 C.1       1 <0>        -0.1250
      8 C8         -2.2341   -1.3422    0.0170 C.1       1 <0>        -0.1466
      9 C9         -3.4972   -2.0980    0.0255 C.3       1 <0>         0.1886
     10 O1         -3.2143   -3.4987    0.0152 O.3       1 <0>        -0.5674
     11 C10         3.7221   -0.6965   -0.0382 C.3       1 <0>         0.1641
     12 N1          4.3092   -0.6127   -1.3778 N.am      1 <0>        -0.7216
     13 C11         5.4973   -1.1966   -1.6306 C.2       1 <0>         0.5071
     14 O2          6.0804   -1.7914   -0.7491 O.2       1 <0>        -0.5219
     15 C12         6.1012   -1.1104   -3.0087 C.3       1 <0>         0.1152
     16 H1          5.3288   -1.2382   -3.7671 H         1 <0>         0.1079
     17 C13         6.8145    0.2470   -3.1957 C.3       1 <0>        -0.1220
     18 C14         8.0241   -0.1508   -4.0730 C.3       1 <0>        -0.1550
     19 C15         8.2360   -1.6176   -3.7696 C.2       1 <0>         0.5227
     20 O3          9.2425   -2.2424   -4.0297 O.2       1 <0>        -0.5247
     21 N2          7.1452   -2.1291   -3.1703 N.am      1 <0>        -0.7121
     22 F1          3.5381    2.1119   -0.0217 F         1 <0>        -0.1280
     23 H2         -0.9588    1.9192    0.0260 H         1 <0>         0.1415
     24 H3          1.1562    3.1745    0.0081 H         1 <0>         0.1468
     25 H4          1.2429   -1.7603   -0.0204 H         1 <0>         0.1412
     26 H5         -4.0639   -1.8484    0.9225 H         1 <0>         0.0774
     27 H6         -4.0816   -1.8389   -0.8573 H         1 <0>         0.0774
     28 H7         -4.0022   -4.0592    0.0200 H         1 <0>         0.3915
     29 H8          4.3988   -0.2402    0.6843 H         1 <0>         0.0855
     30 H9          3.5626   -1.7425    0.2238 H         1 <0>         0.0865
     31 H10         3.8428   -0.1370   -2.0828 H         1 <0>         0.4044
     32 H11         6.1718    0.9570   -3.7163 H         1 <0>         0.1027
     33 H12         7.1432    0.6502   -2.2379 H         1 <0>         0.0896
     34 H13         7.7927   -0.0091   -5.1287 H         1 <0>         0.1113
     35 H14         8.9047    0.4277   -3.7936 H         1 <0>         0.1089
     36 H15         7.0597   -3.0511   -2.8813 H         1 <0>         0.4166
@<TRIPOS>BOND
     1    1    6 ar
     2    1    2 ar
     3    1   23 1
     4    2    3 ar
     5    2   24 1
     6    3    4 ar
     7    3   22 1
     8    4    5 ar
     9    4   11 1
    10    5    6 ar
    11    5   25 1
    12    6    7 1
    13    7    8 3
    14    8    9 1
    15    9   10 1
    16    9   26 1
    17    9   27 1
    18   10   28 1
    19   11   12 1
    20   11   29 1
    21   11   30 1
    22   12   13 am
    23   12   31 1
    24   13   14 2
    25   13   15 1
    26   15   16 1
    27   15   21 1
    28   15   17 1
    29   17   18 1
    30   17   32 1
    31   17   33 1
    32   18   19 1
    33   18   34 1
    34   18   35 1
    35   19   20 2
    36   19   21 am
    37   21   36 1
@<TRIPOS>MOLECULE
ZINC58054844
   37    38     0     0     0
SMALL
USER_CHARGES

@<TRIPOS>ATOM
      1 C1         -0.0187    1.5258    0.0104 C.3       1 <0>        -0.1415
      2 C2          0.0021   -0.0041    0.0020 C.3       1 <0>         0.1403
      3 H1          0.5123   -0.3556   -0.8948 H         1 <0>         0.0547
      4 C3         -1.4117   -0.5257    0.0127 C.2       1 <0>         0.1922
      5 C4         -1.8875   -1.2243   -1.0581 C.2       1 <0>        -0.2972
      6 C5         -3.2119   -1.7023   -1.0252 C.2       1 <0>         0.5273
      7 O1         -3.6696   -2.3309   -1.9651 O.2       1 <0>        -0.5415
      8 N1         -3.9648   -1.4516    0.0672 N.am      1 <0>        -0.6319
      9 H2         -4.8795   -1.7713    0.1121 H         1 <0>         0.4149
     10 C6         -3.4339   -0.7474    1.1073 C.2       1 <0>         0.4427
     11 N2         -2.1917   -0.3085    1.0693 N.2       1 <0>        -0.4716
     12 C7         -4.2619   -0.4771    2.2974 C.ar      1 <0>        -0.0804
     13 C8         -5.5772   -0.9449    2.3586 C.ar      1 <0>        -0.0879
     14 C9         -6.3474   -0.6881    3.4776 C.ar      1 <0>         0.0886
     15 C10        -5.8170    0.0331    4.5403 C.ar      1 <0>        -0.1305
     16 C11        -4.5184    0.4993    4.4878 C.ar      1 <0>        -0.1784
     17 C12        -3.7318    0.2450    3.3750 C.ar      1 <0>         0.1658
     18 O2         -2.4531    0.6988    3.3270 O.3       1 <0>        -0.2582
     19 C13        -1.9803    1.4273    4.4618 C.3       1 <0>         0.0200
     20 O3         -7.6277   -1.1424    3.5383 O.3       1 <0>        -0.3148
     21 C14        -8.3672   -0.8417    4.7235 C.3       1 <0>         0.0258
     22 N3          0.7126   -0.4907    1.1921 N.3       1 <0>        -0.8288
     23 H3          1.0039    1.9031    0.0027 H         1 <0>         0.0613
     24 H4         -0.5459    1.8868   -0.8726 H         1 <0>         0.0583
     25 H5         -0.5289    1.8773    0.9072 H         1 <0>         0.0776
     26 H6         -1.2590   -1.4074   -1.9171 H         1 <0>         0.1537
     27 H7         -5.9913   -1.5053    1.5335 H         1 <0>         0.1392
     28 H8         -6.4238    0.2304    5.4117 H         1 <0>         0.1391
     29 H9         -4.1131    1.0595    5.3174 H         1 <0>         0.1430
     30 H10        -0.9470    1.7311    4.2938 H         1 <0>         0.1055
     31 H11        -2.5997    2.3120    4.6094 H         1 <0>         0.0530
     32 H12        -2.0335    0.7946    5.3478 H         1 <0>         0.0540
     33 H13        -7.8617   -1.2744    5.5868 H         1 <0>         0.0570
     34 H14        -8.4339    0.2394    4.8457 H         1 <0>         0.0569
     35 H15        -9.3702   -1.2606    4.6421 H         1 <0>         0.1036
     36 H16         0.6843   -1.4980    1.2434 H         1 <0>         0.3421
     37 H17         1.6637   -0.1543    1.2082 H         1 <0>         0.3461
@<TRIPOS>BOND
     1    1    2 1
     2    1   23 1
     3    1   24 1
     4    1   25 1
     5    2    3 1
     6    2   22 1
     7    2    4 1
     8    4    5 2
     9    4   11 1
    10    5    6 1
    11    5   26 1
    12    6    7 2
    13    6    8 am
    14    8   10 1
    15    8    9 1
    16   10   11 2
    17   10   12 1
    18   12   17 ar
    19   12   13 ar
    20   13   14 ar
    21   13   27 1
    22   14   15 ar
    23   14   20 1
    24   15   16 ar
    25   15   28 1
    26   16   17 ar
    27   16   29 1
    28   17   18 1
    29   18   19 1
    30   19   30 1
    31   19   31 1
    32   19   32 1
    33   20   21 1
    34   21   33 1
    35   21   34 1
    36   21   35 1
    37   22   36 1
    38   22   37 1
@<TRIPOS>MOLECULE
ZINC62859652
   46    47     0     0     0
SMALL
USER_CHARGES

@<TRIPOS>ATOM
      1 C1         -0.0187    1.5258    0.0104 C.3       1 <0>        -0.1485
      2 C2          0.0021   -0.0041    0.0020 C.3       1 <0>        -0.0893
      3 H1          0.5123   -0.3556   -0.8948 H         1 <0>         0.0586
      4 C3         -1.4333   -0.5336    0.0129 C.3       1 <0>        -0.1139
      5 C4         -1.4126   -2.0635    0.0045 C.3       1 <0>        -0.1148
      6 C5         -0.6726   -2.5703    1.2440 C.3       1 <0>        -0.1118
      7 C6          0.7628   -2.0407    1.2331 C.3       1 <0>         0.1073
      8 C7          0.7421   -0.5109    1.2415 C.3       1 <0>        -0.1039
      9 C8          1.4917   -2.5400    2.4540 C.2       1 <0>         0.5009
     10 O1          2.4913   -3.2267    2.3289 O.co2     1 <0>        -0.6790
     11 O2          1.0818   -2.2571    3.5669 O.co2     1 <0>        -0.6860
     12 N1          1.4485   -2.5132    0.0278 N.am      1 <0>        -0.6734
     13 C9          1.5876   -3.8353   -0.1939 C.2       1 <0>         0.5260
     14 O3          1.1450   -4.6339    0.6044 O.2       1 <0>        -0.5405
     15 C10         2.2930   -4.3213   -1.4338 C.3       1 <0>        -0.1032
     16 C11         1.5498   -3.8190   -2.6750 C.3       1 <0>        -0.1229
     17 C12         0.1409   -4.4189   -2.6919 C.3       1 <0>        -0.1548
     18 C13         0.2418   -5.9453   -2.6545 C.3       1 <0>        -0.0049
     19 N2          0.9386   -6.3634   -1.4322 N.4       1 <0>        -0.5053
     20 C14         2.3142   -5.8513   -1.4430 C.3       1 <0>         0.0209
     21 C15         3.7278   -3.7904   -1.4466 C.3       1 <0>        -0.1405
     22 H2          1.0039    1.9031    0.0027 H         1 <0>         0.0543
     23 H3         -0.5459    1.8868   -0.8726 H         1 <0>         0.0520
     24 H4         -0.5289    1.8773    0.9072 H         1 <0>         0.0574
     25 H5         -1.9435   -0.1821    0.9097 H         1 <0>         0.0655
     26 H6         -1.9605   -0.1726   -0.8702 H         1 <0>         0.0568
     27 H7         -2.4352   -2.4408    0.0122 H         1 <0>         0.0557
     28 H8         -0.9024   -2.4150   -0.8923 H         1 <0>         0.0491
     29 H9         -1.1828   -2.2188    2.1408 H         1 <0>         0.0757
     30 H10        -0.6578   -3.6602    1.2380 H         1 <0>         0.0707
     31 H11         1.7647   -0.1336    1.2338 H         1 <0>         0.0614
     32 H12         0.2319   -0.1594    2.1383 H         1 <0>         0.0857
     33 H13         1.8025   -1.8745   -0.6107 H         1 <0>         0.3890
     34 H14         1.4826   -2.7315   -2.6444 H         1 <0>         0.0938
     35 H15         2.0878   -4.1270   -3.5715 H         1 <0>         0.0911
     36 H16        -0.4140   -4.0694   -1.8212 H         1 <0>         0.0913
     37 H17        -0.3752   -4.1104   -3.6011 H         1 <0>         0.1127
     38 H18        -0.7596   -6.3756   -2.6666 H         1 <0>         0.1286
     39 H19         0.7966   -6.2937   -3.5257 H         1 <0>         0.1265
     40 H20         0.4515   -5.9990   -0.6272 H         1 <0>         0.4363
     41 H21         2.8248   -6.2017   -2.3400 H         1 <0>         0.1310
     42 H22         2.8427   -6.2123   -0.5608 H         1 <0>         0.1386
     43 H23         4.2562   -4.1501   -0.5637 H         1 <0>         0.0808
     44 H24         4.2374   -4.1422   -2.3436 H         1 <0>         0.0729
     45 H25         3.7120   -2.7005   -1.4416 H         1 <0>         0.0769
     46 H26         0.9563   -7.3711   -1.3843 H         1 <0>         0.4251
@<TRIPOS>BOND
     1    1    2 1
     2    1   22 1
     3    1   23 1
     4    1   24 1
     5    2    3 1
     6    2    8 1
     7    2    4 1
     8    4    5 1
     9    4   25 1
    10    4   26 1
    11    5    6 1
    12    5   27 1
    13    5   28 1
    14    6    7 1
    15    6   29 1
    16    6   30 1
    17    7    8 1
    18    7    9 1
    19    7   12 1
    20    8   31 1
    21    8   32 1
    22    9   10 2
    23    9   11 1
    24   12   13 am
    25   12   33 1
    26   13   14 2
    27   13   15 1
    28   15   20 1
    29   15   16 1
    30   15   21 1
    31   16   17 1
    32   16   34 1
    33   16   35 1
    34   17   18 1
    35   17   36 1
    36   17   37 1
    37   18   19 1
    38   18   38 1
    39   18   39 1
    40   19   20 1
    41   19   40 1
    42   19   46 1
    43   20   41 1
    44   20   42 1
    45   21   43 1
    46   21   44 1
    47   21   45 1
@<TRIPOS>MOLECULE
ZINC36922770
   35    36     0     0     0
SMALL
USER_CHARGES

@<TRIPOS>ATOM
      1 C1         -0.0169    1.3915    0.0097 C.ar      1 <0>        -0.0816
      2 C2          1.1702    2.0945    0.0021 C.ar      1 <0>        -0.0233
      3 C3          2.3776    1.4190   -0.0135 C.ar      1 <0>        -0.6566
      4 C4          2.4034    0.0357   -0.0216 C.ar      1 <0>        -0.0239
      5 C5          1.2235   -0.6793   -0.0137 C.ar      1 <0>        -0.1087
      6 C6          0.0021   -0.0041    0.0020 C.ar      1 <0>        -0.0740
      7 C7         -1.2662   -0.7638    0.0105 C.2       1 <0>         0.5523
      8 O1         -2.3285   -0.1731    0.0243 O.2       1 <0>        -0.5263
      9 N1         -1.2445   -2.1114    0.0031 N.am      1 <0>        -0.7161
     10 C8         -2.5013   -2.8643    0.0115 C.3       1 <0>         0.1090
     11 C9         -2.1976   -4.3638    0.0005 C.3       1 <0>         0.0665
     12 H1         -1.5460   -4.6028   -0.8400 H         1 <0>         0.0897
     13 C10        -3.5131   -5.1638   -0.1127 C.3       1 <0>        -0.1483
     14 C11        -3.2530   -6.3622    0.8403 C.3       1 <0>        -0.1564
     15 C12        -2.3871   -5.6864    1.9331 C.3       1 <0>         0.0486
     16 O2         -1.5641   -4.7403    1.2287 O.3       1 <0>        -0.3772
     17 S1          3.8891    2.3245   -0.0236 S.o2      1 <0>         2.7016
     18 O3          4.8719    1.4678   -0.5889 O.2       1 <0>        -0.9588
     19 O4          3.5921    3.6045   -0.5647 O.2       1 <0>        -0.9581
     20 N2          4.3248    2.5676    1.5554 N.pl3     1 <0>        -1.2487
     21 H2         -0.9586    1.9199    0.0260 H         1 <0>         0.1498
     22 H3          1.1570    3.1744    0.0081 H         1 <0>         0.1528
     23 H4          3.3492   -0.4855   -0.0345 H         1 <0>         0.1517
     24 H5          1.2450   -1.7591   -0.0205 H         1 <0>         0.1391
     25 H6         -0.3968   -2.5828   -0.0079 H         1 <0>         0.4051
     26 H7         -3.0681   -2.6150    0.9085 H         1 <0>         0.0767
     27 H8         -3.0858   -2.6054   -0.8713 H         1 <0>         0.0829
     28 H9         -4.3592   -4.5698    0.2330 H         1 <0>         0.0836
     29 H10        -3.6711   -5.5080   -1.1347 H         1 <0>         0.0886
     30 H11        -4.1857   -6.7421    1.2573 H         1 <0>         0.0871
     31 H12        -2.6999   -7.1535    0.3344 H         1 <0>         0.0810
     32 H13        -3.0220   -5.1728    2.6551 H         1 <0>         0.0628
     33 H14        -1.7652   -6.4276    2.4351 H         1 <0>         0.0886
     34 H15         3.7665    2.2251    2.2708 H         1 <0>         0.4175
     35 H16         5.1384    3.0526    1.7649 H         1 <0>         0.4229
@<TRIPOS>BOND
     1    1    6 ar
     2    1    2 ar
     3    1   21 1
     4    2    3 ar
     5    2   22 1
     6    3    4 ar
     7    3   17 1
     8    4    5 ar
     9    4   23 1
    10    5    6 ar
    11    5   24 1
    12    6    7 1
    13    7    8 2
    14    7    9 am
    15    9   10 1
    16    9   25 1
    17   10   11 1
    18   10   26 1
    19   10   27 1
    20   11   12 1
    21   11   16 1
    22   11   13 1
    23   13   14 1
    24   13   28 1
    25   13   29 1
    26   14   15 1
    27   14   30 1
    28   14   31 1
    29   15   16 1
    30   15   32 1
    31   15   33 1
    32   17   18 2
    33   17   19 2
    34   17   20 1
    35   20   34 1
    36   20   35 1
@<TRIPOS>MOLECULE
ZINC41118921
   35    36     0     0     0
SMALL
USER_CHARGES

@<TRIPOS>ATOM
      1 C1          2.2390   -1.7309    1.7346 C.3       1 <0>        -0.1371
      2 C2          1.1439   -1.4616    0.7349 C.ar      1 <0>        -0.0410
      3 C3          1.2340   -1.9810   -0.5437 C.ar      1 <0>        -0.0908
      4 C4          0.2323   -1.7362   -1.4622 C.ar      1 <0>        -0.1375
      5 C5         -0.8668   -0.9673   -1.1005 C.ar      1 <0>         0.1951
      6 C6         -0.9541   -0.4472    0.1844 C.ar      1 <0>        -0.0995
      7 C7          0.0487   -0.7007    1.0999 C.ar      1 <0>        -0.6308
      8 S1         -0.0644   -0.0474    2.7324 S.o2      1 <0>         2.6989
      9 O1         -1.2692    0.7040    2.7866 O.2       1 <0>        -0.9555
     10 O2          0.2023   -1.1244    3.6202 O.2       1 <0>        -0.9481
     11 N1          1.1765    1.0341    2.9141 N.pl3     1 <0>        -1.1167
     12 C8          1.2170    2.2471    2.0936 C.3       1 <0>         0.1029
     13 C9          2.2071    3.2419    2.7026 C.3       1 <0>         0.1002
     14 N2          2.2475    4.4549    1.8821 N.pl3     1 <0>        -0.4613
     15 C10         3.0770    4.6889    0.8186 C.2       1 <0>        -0.0574
     16 C11         2.7809    5.9188    0.3568 C.2       1 <0>        -0.0263
     17 N3          1.7976    6.4221    1.1175 N.2       1 <0>        -0.4928
     18 C12         1.4695    5.5488    2.0301 C.2       1 <0>         0.1851
     19 N4         -1.8816   -0.7173   -2.0272 N.pl3     1 <0>        -0.8761
     20 H1          1.9678   -2.5901    2.3480 H         1 <0>         0.0930
     21 H2          3.1693   -1.9406    1.2067 H         1 <0>         0.0795
     22 H3          2.3721   -0.8568    2.3720 H         1 <0>         0.0620
     23 H4          2.0888   -2.5784   -0.8243 H         1 <0>         0.1328
     24 H5          0.3034   -2.1418   -2.4606 H         1 <0>         0.1297
     25 H6         -1.8070    0.1513    0.4686 H         1 <0>         0.1413
     26 H7          1.8765    0.8644    3.5637 H         1 <0>         0.4211
     27 H8          1.5342    1.9915    1.0826 H         1 <0>         0.0760
     28 H9          0.2245    2.6965    2.0602 H         1 <0>         0.0905
     29 H10         1.8898    3.4976    3.7136 H         1 <0>         0.1058
     30 H11         3.1996    2.7925    2.7359 H         1 <0>         0.1017
     31 H12         3.8252    4.0165    0.4257 H         1 <0>         0.1749
     32 H13         3.2526    6.4132   -0.4796 H         1 <0>         0.1703
     33 H14         0.7044    5.6801    2.7809 H         1 <0>         0.2064
     34 H15        -1.8194   -1.0808   -2.9243 H         1 <0>         0.4015
     35 H16        -2.6485   -0.1803   -1.7735 H         1 <0>         0.4023
@<TRIPOS>BOND
     1    1    2 1
     2    1   20 1
     3    1   21 1
     4    1   22 1
     5    2    7 ar
     6    2    3 ar
     7    3    4 ar
     8    3   23 1
     9    4    5 ar
    10    4   24 1
    11    5    6 ar
    12    5   19 1
    13    6    7 ar
    14    6   25 1
    15    7    8 1
    16    8    9 2
    17    8   10 2
    18    8   11 1
    19   11   12 1
    20   11   26 1
    21   12   13 1
    22   12   27 1
    23   12   28 1
    24   13   14 1
    25   13   29 1
    26   13   30 1
    27   14   18 1
    28   14   15 1
    29   15   16 2
    30   15   31 1
    31   16   17 1
    32   16   32 1
    33   17   18 2
    34   18   33 1
    35   19   34 1
    36   19   35 1
@<TRIPOS>MOLECULE
ZINC47836588
   29    30     0     0     0
SMALL
USER_CHARGES

@<TRIPOS>ATOM
      1 C1         -0.0169    1.3918    0.0097 C.ar      1 <0>        -0.0759
      2 C2          1.1701    2.0947    0.0021 C.ar      1 <0>        -0.0208
      3 C3          2.3776    1.4192   -0.0130 C.ar      1 <0>        -0.6529
      4 C4          2.4035    0.0358   -0.0212 C.ar      1 <0>        -0.0217
      5 C5          1.2239   -0.6793   -0.0142 C.ar      1 <0>        -0.1085
      6 C6          0.0021   -0.0041    0.0020 C.ar      1 <0>        -0.0743
      7 C7         -1.2656   -0.7636    0.0105 C.2       1 <0>         0.5518
      8 O1         -2.3277   -0.1730    0.0242 O.2       1 <0>        -0.4528
      9 N1         -1.2439   -2.1112    0.0031 N.am      1 <0>        -0.6226
     10 C8         -2.4287   -2.8210    0.0110 C.2       1 <0>         0.4066
     11 N2         -3.6366   -2.3373    0.0199 N.2       1 <0>        -0.5315
     12 C9         -4.7974   -3.2082    0.0525 C.3       1 <0>         0.0488
     13 C10        -4.4257   -4.6516   -0.3837 C.3       1 <0>        -0.0889
     14 S1         -2.6255   -4.5956    0.0035 S.3       1 <0>        -0.2181
     15 S2          3.8891    2.3247   -0.0226 S.o2      1 <0>         2.7014
     16 O2          4.8722    1.4681   -0.5874 O.2       1 <0>        -0.9570
     17 O3          3.5922    3.6047   -0.5637 O.2       1 <0>        -0.9564
     18 N3          4.3242    2.5679    1.5566 N.pl3     1 <0>        -1.2483
     19 H1         -0.9586    1.9203    0.0260 H         1 <0>         0.1525
     20 H2          1.1569    3.1746    0.0077 H         1 <0>         0.1555
     21 H3          3.3494   -0.4853   -0.0333 H         1 <0>         0.1547
     22 H4          1.2455   -1.7591   -0.0213 H         1 <0>         0.1397
     23 H5         -0.3962   -2.5825   -0.0079 H         1 <0>         0.4271
     24 H6         -5.1980   -3.2327    1.0660 H         1 <0>         0.1020
     25 H7         -5.5585   -2.8154   -0.6217 H         1 <0>         0.1106
     26 H8         -4.9453   -5.3987    0.2163 H         1 <0>         0.1298
     27 H9         -4.5984   -4.8060   -1.4489 H         1 <0>         0.1082
     28 H10         3.7656    2.2253    2.2718 H         1 <0>         0.4176
     29 H11         5.1376    3.0528    1.7664 H         1 <0>         0.4235
@<TRIPOS>BOND
     1    1    6 ar
     2    1    2 ar
     3    1   19 1
     4    2    3 ar
     5    2   20 1
     6    3    4 ar
     7    3   15 1
     8    4    5 ar
     9    4   21 1
    10    5    6 ar
    11    5   22 1
    12    6    7 1
    13    7    8 2
    14    7    9 am
    15    9   10 1
    16    9   23 1
    17   10   14 1
    18   10   11 2
    19   11   12 1
    20   12   13 1
    21   12   24 1
    22   12   25 1
    23   13   14 1
    24   13   26 1
    25   13   27 1
    26   15   16 2
    27   15   17 2
    28   15   18 1
    29   18   28 1
    30   18   29 1
@<TRIPOS>MOLECULE
ZINC55174409
   33    34     0     0     0
SMALL
USER_CHARGES

@<TRIPOS>ATOM
      1 C1         -0.0184    1.5028    0.0103 C.3       1 <0>        -0.0927
      2 C2          0.0021   -0.0041    0.0020 C.2       1 <0>         0.2143
      3 C3          0.0061   -0.7290   -1.1812 C.2       1 <0>        -0.3377
      4 S1          0.0326   -2.3973   -0.5447 S.3       1 <0>         0.1117
      5 C4          0.0358   -2.0215    1.0957 C.2       1 <0>         0.3432
      6 N1          0.0225   -0.7001    1.1108 N.2       1 <0>        -0.5958
      7 N2          0.0533   -2.8865    2.1688 N.pl3     1 <0>        -0.7879
      8 C5         -0.0082   -0.2577   -2.5653 C.2       1 <0>         0.6215
      9 O1         -0.0267    0.9366   -2.8016 O.2       1 <0>        -0.5254
     10 N3         -0.0009   -1.1452   -3.5796 N.am      1 <0>        -0.7322
     11 C6         -0.0152   -0.6729   -4.9663 C.3       1 <0>         0.1311
     12 C7         -0.0030   -1.8739   -5.9142 C.3       1 <0>        -0.1055
     13 H1          0.8427   -2.5174   -5.6719 H         1 <0>         0.1035
     14 C8         -1.3107   -2.6663   -5.7511 C.3       1 <0>        -0.1314
     15 C9         -1.4126   -3.6799   -6.9265 C.3       1 <0>        -0.5754
     16 S2         -0.8060   -2.6405   -8.3216 S.o2      1 <0>         2.3719
     17 O2         -1.9171   -2.0161   -8.9500 O.2       1 <0>        -0.9327
     18 O3          0.1030   -3.4021   -9.1045 O.2       1 <0>        -0.9363
     19 C10         0.1320   -1.3755   -7.3733 C.3       1 <0>        -0.5768
     20 H2          1.0042    1.8801    0.0026 H         1 <0>         0.0842
     21 H3         -0.5455    1.8639   -0.8728 H         1 <0>         0.0979
     22 H4         -0.5286    1.8543    0.9071 H         1 <0>         0.0760
     23 H5          0.0659   -3.8448    2.0191 H         1 <0>         0.4238
     24 H6          0.0531   -2.5369    3.0736 H         1 <0>         0.4198
     25 H7          0.0139   -2.0966   -3.3914 H         1 <0>         0.3983
     26 H8         -0.9148   -0.0823   -5.1397 H         1 <0>         0.0805
     27 H9          0.8650   -0.0566   -5.1494 H         1 <0>         0.0823
     28 H10        -1.3003   -3.2026   -4.8023 H         1 <0>         0.0999
     29 H11        -2.1604   -1.9841   -5.7786 H         1 <0>         0.0947
     30 H12        -0.7622   -4.5393   -6.7634 H         1 <0>         0.1401
     31 H13        -2.4439   -3.9937   -7.0881 H         1 <0>         0.1430
     32 H14        -0.3210   -0.3909   -7.4889 H         1 <0>         0.1456
     33 H15         1.1776   -1.3596   -7.6810 H         1 <0>         0.1467
@<TRIPOS>BOND
     1    1    2 1
     2    1   20 1
     3    1   21 1
     4    1   22 1
     5    2    6 1
     6    2    3 2
     7    3    4 1
     8    3    8 1
     9    4    5 1
    10    5    6 2
    11    5    7 1
    12    7   23 1
    13    7   24 1
    14    8    9 2
    15    8   10 am
    16   10   11 1
    17   10   25 1
    18   11   12 1
    19   11   26 1
    20   11   27 1
    21   12   13 1
    22   12   19 1
    23   12   14 1
    24   14   15 1
    25   14   28 1
    26   14   29 1
    27   15   16 1
    28   15   30 1
    29   15   31 1
    30   16   17 2
    31   16   18 2
    32   16   19 1
    33   19   32 1
    34   19   33 1
@<TRIPOS>MOLECULE
ZINC62106522
   36    38     0     0     0
SMALL
USER_CHARGES

@<TRIPOS>ATOM
      1 C1         -2.0003    2.7050   -1.4897 C.ar      1 <0>         0.0190
      2 C2         -0.9621    3.6032   -1.3507 C.ar      1 <0>        -0.1589
      3 C3          0.1659    3.2590   -0.6090 C.ar      1 <0>         0.2016
      4 C4          0.2241    2.0033   -0.0170 C.ar      1 <0>        -0.1644
      5 C5         -0.8130    1.1093   -0.1569 C.ar      1 <0>         0.0339
      6 C6         -1.9305    1.4584   -0.8958 C.ar      1 <0>        -0.7016
      7 S1         -3.2608    0.3175   -1.0778 S.o2      1 <0>         2.6990
      8 O1         -3.1864   -0.5728    0.0272 O.2       1 <0>        -0.9515
      9 O2         -4.4212    1.0881   -1.3585 O.2       1 <0>        -0.9564
     10 N1         -2.9516   -0.5830   -2.4328 N.pl3     1 <0>        -1.1148
     11 C7         -1.7900   -1.4749   -2.4702 C.3       1 <0>         0.1555
     12 C8         -1.9369   -2.4551   -3.6357 C.3       1 <0>        -0.1395
     13 C9         -0.7178   -2.6719   -4.5344 C.3       1 <0>        -0.1537
     14 C10        -1.9179   -1.8765   -5.0520 C.3       1 <0>        -0.1644
     15 C11        -2.8465   -3.6577   -3.3760 C.3       1 <0>         0.1118
     16 O3         -2.2713   -4.4789   -2.3578 O.3       1 <0>        -0.5682
     17 C12         1.5502    1.9345    0.7046 C.3       1 <0>        -0.1157
     18 C13         2.1868    3.2811    0.4339 C.2       1 <0>         0.5299
     19 O4          3.2696    3.6586    0.8291 O.2       1 <0>        -0.4892
     20 N2          1.3269    3.9796   -0.3265 N.am      1 <0>        -0.6611
     21 H1         -2.8742    2.9789   -2.0621 H         1 <0>         0.1501
     22 H2         -1.0240    4.5749   -1.8181 H         1 <0>         0.1394
     23 H3         -0.7547    0.1364    0.3083 H         1 <0>         0.1489
     24 H4         -3.5396   -0.5199   -3.2017 H         1 <0>         0.4195
     25 H5         -0.8831   -0.8851   -2.6036 H         1 <0>         0.0675
     26 H6         -1.7279   -2.0301   -1.5342 H         1 <0>         0.0946
     27 H7          0.1889   -2.1162   -4.2953 H         1 <0>         0.0996
     28 H8         -0.5634   -3.6715   -4.9407 H         1 <0>         0.1009
     29 H9         -2.5531   -2.3528   -5.7988 H         1 <0>         0.1002
     30 H10        -1.8008   -0.7976   -5.1534 H         1 <0>         0.1031
     31 H11        -3.8264   -3.3085   -3.0507 H         1 <0>         0.0533
     32 H12        -2.9533   -4.2372   -4.2930 H         1 <0>         0.0493
     33 H13        -2.7957   -5.2619   -2.1410 H         1 <0>         0.3831
     34 H14         1.3960    1.7932    1.7744 H         1 <0>         0.1308
     35 H15         2.1655    1.1324    0.2972 H         1 <0>         0.1304
     36 H16         1.4942    4.8811   -0.6431 H         1 <0>         0.4182
@<TRIPOS>BOND
     1    1    6 ar
     2    1    2 ar
     3    1   21 1
     4    2    3 ar
     5    2   22 1
     6    3   20 1
     7    3    4 ar
     8    4    5 ar
     9    4   17 1
    10    5    6 ar
    11    5   23 1
    12    6    7 1
    13    7    8 2
    14    7    9 2
    15    7   10 1
    16   10   11 1
    17   10   24 1
    18   11   12 1
    19   11   25 1
    20   11   26 1
    21   12   14 1
    22   12   13 1
    23   12   15 1
    24   13   14 1
    25   13   27 1
    26   13   28 1
    27   14   29 1
    28   14   30 1
    29   15   16 1
    30   15   31 1
    31   15   32 1
    32   16   33 1
    33   17   18 1
    34   17   34 1
    35   17   35 1
    36   18   19 2
    37   18   20 am
    38   20   36 1
@<TRIPOS>MOLECULE
ZINC40337031
   39    40     0     0     0
SMALL
USER_CHARGES

@<TRIPOS>ATOM
      1 C1         -0.0184    1.5028    0.0103 C.3       1 <0>        -0.0886
      2 C2          0.0021   -0.0041    0.0020 C.ar      1 <0>         0.3214
      3 N1          0.0052   -0.6392   -1.1529 N.ar      1 <0>        -0.5139
      4 C3          0.0229   -1.9615   -1.1993 C.ar      1 <0>         0.1561
      5 C4          0.0383   -2.6776   -0.0126 C.ar      1 <0>        -0.2177
      6 C5          0.0345   -1.9746    1.1816 C.ar      1 <0>         0.1573
      7 N2          0.0218   -0.6515    1.1496 N.ar      1 <0>        -0.5057
      8 C6          0.0507   -2.7066    2.4988 C.3       1 <0>         0.1714
      9 N3          1.4307   -2.8198    2.9775 N.am      1 <0>        -0.7229
     10 C7          1.6901   -3.4414    4.1449 C.2       1 <0>         0.5245
     11 O1          0.7811   -3.9069    4.7992 O.2       1 <0>        -0.5331
     12 C8          3.1096   -3.5579    4.6374 C.3       1 <0>        -0.1402
     13 C9          3.1261   -4.3011    5.9747 C.3       1 <0>         0.0760
     14 O2          4.4721   -4.4116    6.4416 O.3       1 <0>        -0.3183
     15 C10         4.6638   -5.0500    7.6259 C.ar      1 <0>         0.1765
     16 C11         3.5781   -5.5646    8.3212 C.ar      1 <0>        -0.2637
     17 C12         3.7713   -6.2139    9.5254 C.ar      1 <0>        -0.0327
     18 C13         5.0452   -6.3533   10.0416 C.ar      1 <0>        -0.2333
     19 C14         6.1356   -5.8403    9.3502 C.ar      1 <0>         0.2506
     20 C15         5.9438   -5.1926    8.1373 C.ar      1 <0>        -0.2339
     21 N4          7.4236   -5.9811    9.8718 N.pl3     1 <0>        -0.8745
     22 H1          1.0042    1.8801    0.0026 H         1 <0>         0.0887
     23 H2         -0.5455    1.8639   -0.8728 H         1 <0>         0.0885
     24 H3         -0.5286    1.8543    0.9071 H         1 <0>         0.0879
     25 H4          0.0250   -2.4758   -2.1490 H         1 <0>         0.1738
     26 H5          0.0526   -3.7575   -0.0185 H         1 <0>         0.1519
     27 H6         -0.5428   -2.1553    3.2281 H         1 <0>         0.0938
     28 H7         -0.3707   -3.7030    2.3660 H         1 <0>         0.0933
     29 H8          2.1577   -2.4475    2.4543 H         1 <0>         0.4044
     30 H9          3.7031   -4.1092    3.9080 H         1 <0>         0.1076
     31 H10         3.5310   -2.5615    4.7702 H         1 <0>         0.1081
     32 H11         2.5326   -3.7498    6.7040 H         1 <0>         0.0736
     33 H12         2.7046   -5.2975    5.8419 H         1 <0>         0.0734
     34 H13         2.5810   -5.4569    7.9204 H         1 <0>         0.1269
     35 H14         2.9247   -6.6130   10.0644 H         1 <0>         0.1248
     36 H15         5.1934   -6.8609   10.9833 H         1 <0>         0.1209
     37 H16         6.7901   -4.7971    7.5954 H         1 <0>         0.1271
     38 H17         7.5572   -6.4373   10.7174 H         1 <0>         0.4006
     39 H18         8.1844   -5.6227    9.3886 H         1 <0>         0.3993
@<TRIPOS>BOND
     1    1    2 1
     2    1   22 1
     3    1   23 1
     4    1   24 1
     5    2    7 ar
     6    2    3 ar
     7    3    4 ar
     8    4    5 ar
     9    4   25 1
    10    5    6 ar
    11    5   26 1
    12    6    7 ar
    13    6    8 1
    14    8    9 1
    15    8   27 1
    16    8   28 1
    17    9   10 am
    18    9   29 1
    19   10   11 2
    20   10   12 1
    21   12   13 1
    22   12   30 1
    23   12   31 1
    24   13   14 1
    25   13   32 1
    26   13   33 1
    27   14   15 1
    28   15   20 ar
    29   15   16 ar
    30   16   17 ar
    31   16   34 1
    32   17   18 ar
    33   17   35 1
    34   18   19 ar
    35   18   36 1
    36   19   20 ar
    37   19   21 1
    38   20   37 1
    39   21   38 1
    40   21   39 1
@<TRIPOS>MOLECULE
ZINC43644114
   35    36     0     0     0
SMALL
USER_CHARGES

@<TRIPOS>ATOM
      1 C1         -0.0162    1.3409    0.0094 C.2       1 <0>        -0.2187
      2 C2          1.3313    1.7689   -0.0012 C.2       1 <0>        -0.1793
      3 C3          2.0923    0.6599   -0.0144 C.2       1 <0>        -0.0434
      4 O1          1.2819   -0.4111   -0.0124 O.3       1 <0>        -0.1713
      5 C4          0.0021   -0.0041    0.0020 C.2       1 <0>        -0.0254
      6 C5          3.5989    0.6249   -0.0294 C.3       1 <0>         0.2232
      7 N1          4.1006    0.6065    1.3469 N.am      1 <0>        -0.7434
      8 C6          5.4277    0.5745    1.5799 C.2       1 <0>         0.7097
      9 O2          6.2085    0.5610    0.6479 O.2       1 <0>        -0.5847
     10 N2          5.8894    0.5575    2.8460 N.am      1 <0>        -0.7424
     11 C7          7.3319    0.5228    3.0994 C.3       1 <0>         0.1278
     12 C8          7.5845    0.5095    4.6083 C.3       1 <0>         0.1080
     13 N3          9.0270    0.4747    4.8616 N.am      1 <0>        -0.7186
     14 C9          9.4886    0.4577    6.1278 C.2       1 <0>         0.6089
     15 O3          8.7072    0.4713    7.0606 O.2       1 <0>        -0.5160
     16 C10        10.9327    0.4229    6.3814 C.2       1 <0>        -0.0876
     17 C11        11.5315    0.3975    7.6082 C.2       1 <0>        -0.1128
     18 C12        12.9163    0.3679    7.3809 C.2       1 <0>        -0.2257
     19 C13        13.0998    0.3765    6.0421 C.2       1 <0>         0.0003
     20 O4         11.9021    0.4046    5.4433 O.3       1 <0>        -0.1652
     21 H1         -0.8920    1.9726    0.0252 H         1 <0>         0.1519
     22 H2          1.6822    2.7903    0.0004 H         1 <0>         0.1517
     23 H3         -0.8653   -0.6475    0.0072 H         1 <0>         0.2062
     24 H4          3.9364   -0.2706   -0.5512 H         1 <0>         0.0861
     25 H5          3.9777    1.5089   -0.5424 H         1 <0>         0.1004
     26 H6          3.4778    0.6173    2.0904 H         1 <0>         0.4007
     27 H7          5.2665    0.5683    3.5896 H         1 <0>         0.4007
     28 H8          7.7578   -0.3751    2.6517 H         1 <0>         0.0770
     29 H9          7.7992    1.4043    2.6605 H         1 <0>         0.0771
     30 H10         7.1585    1.4074    5.0560 H         1 <0>         0.0804
     31 H11         7.1172   -0.3721    5.0472 H         1 <0>         0.0803
     32 H12         9.6499    0.4639    4.1181 H         1 <0>         0.4100
     33 H13        11.0357    0.3997    8.5677 H         1 <0>         0.1618
     34 H14        13.6897    0.3433    8.1343 H         1 <0>         0.1593
     35 H15        14.0548    0.3599    5.5381 H         1 <0>         0.2131
@<TRIPOS>BOND
     1    1    5 2
     2    1    2 1
     3    1   21 1
     4    2    3 2
     5    2   22 1
     6    3    4 1
     7    3    6 1
     8    4    5 1
     9    5   23 1
    10    6    7 1
    11    6   24 1
    12    6   25 1
    13    7    8 am
    14    7   26 1
    15    8    9 2
    16    8   10 am
    17   10   11 1
    18   10   27 1
    19   11   12 1
    20   11   28 1
    21   11   29 1
    22   12   13 1
    23   12   30 1
    24   12   31 1
    25   13   14 am
    26   13   32 1
    27   14   15 2
    28   14   16 1
    29   16   20 1
    30   16   17 2
    31   17   18 1
    32   17   33 1
    33   18   19 2
    34   18   34 1
    35   19   20 1
    36   19   35 1
@<TRIPOS>MOLECULE
ZINC48624004
   39    39     0     0     0
SMALL
USER_CHARGES

@<TRIPOS>ATOM
      1 C1         -0.0187    1.5258    0.0104 C.3       1 <0>        -0.1374
      2 C2          0.0021   -0.0041    0.0020 C.3       1 <0>        -0.1445
      3 C3          0.7309   -0.5033    1.2229 C.2       1 <0>         0.5153
      4 O1          1.1887    0.2867    2.0212 O.2       1 <0>        -0.5363
      5 N1          0.8741   -1.8277    1.4277 N.am      1 <0>        -0.7148
      6 C4          1.5826   -2.3130    2.6146 C.3       1 <0>         0.1336
      7 H1          2.3978   -1.6306    2.8554 H         1 <0>         0.1187
      8 C5          0.6115   -2.3841    3.7948 C.3       1 <0>        -0.1102
      9 C6          0.1404   -0.9733    4.1533 C.3       1 <0>        -0.0728
     10 S1         -1.0110   -1.0577    5.5525 S.3       1 <0>        -0.2779
     11 C7         -1.4694    0.6723    5.8485 C.3       1 <0>        -0.1151
     12 C8          2.1410   -3.6855    2.3401 C.2       1 <0>         0.5176
     13 O2          1.9644   -4.2070    1.2594 O.2       1 <0>        -0.5291
     14 N2          2.8365   -4.3336    3.2955 N.am      1 <0>        -0.7169
     15 C9          3.3793   -5.6679    3.0286 C.3       1 <0>         0.2037
     16 C10         4.1082   -6.1671    4.2495 C.2       1 <0>         0.0513
     17 C11         3.5728   -6.9920    5.2441 C.2       1 <0>        -0.2577
     18 C12         4.5391   -7.2148    6.1649 C.2       1 <0>         0.0615
     19 N3          5.6466   -6.5544    5.7670 N.pl3     1 <0>        -0.4701
     20 H2          6.4970   -6.5335    6.2332 H         1 <0>         0.4427
     21 N4          5.3528   -5.9084    4.5592 N.2       1 <0>        -0.2736
     22 H3          1.0039    1.9031    0.0027 H         1 <0>         0.0622
     23 H4         -0.5459    1.8868   -0.8726 H         1 <0>         0.0631
     24 H5         -0.5289    1.8773    0.9072 H         1 <0>         0.0605
     25 H6         -1.0205   -0.3814    0.0098 H         1 <0>         0.0954
     26 H7          0.5123   -0.3556   -0.8948 H         1 <0>         0.0967
     27 H8          0.5079   -2.4595    0.7893 H         1 <0>         0.4127
     28 H9         -0.2483   -2.9958    3.5215 H         1 <0>         0.0839
     29 H10         1.1151   -2.8282    4.6534 H         1 <0>         0.0867
     30 H11         1.0002   -0.3616    4.4266 H         1 <0>         0.0892
     31 H12        -0.3632   -0.5293    3.2946 H         1 <0>         0.0865
     32 H13        -0.5758    1.2494    6.0862 H         1 <0>         0.0770
     33 H14        -1.9392    1.0818    4.9542 H         1 <0>         0.0759
     34 H15        -2.1687    0.7252    6.6829 H         1 <0>         0.1016
     35 H16         2.9777   -3.9165    4.1597 H         1 <0>         0.4062
     36 H17         2.5642   -6.3502    2.7877 H         1 <0>         0.0939
     37 H18         4.0712   -5.6172    2.1878 H         1 <0>         0.0866
     38 H19         2.5660   -7.3817    5.2725 H         1 <0>         0.1523
     39 H20         4.4413   -7.8137    7.0583 H         1 <0>         0.1812
@<TRIPOS>BOND
     1    1    2 1
     2    1   22 1
     3    1   23 1
     4    1   24 1
     5    2    3 1
     6    2   25 1
     7    2   26 1
     8    3    4 2
     9    3    5 am
    10    5    6 1
    11    5   27 1
    12    6    7 1
    13    6    8 1
    14    6   12 1
    15    8    9 1
    16    8   28 1
    17    8   29 1
    18    9   10 1
    19    9   30 1
    20    9   31 1
    21   10   11 1
    22   11   32 1
    23   11   33 1
    24   11   34 1
    25   12   13 2
    26   12   14 am
    27   14   15 1
    28   14   35 1
    29   15   16 1
    30   15   36 1
    31   15   37 1
    32   16   21 2
    33   16   17 1
    34   17   18 2
    35   17   38 1
    36   18   19 1
    37   18   39 1
    38   19   20 1
    39   19   21 1
@<TRIPOS>MOLECULE
ZINC54522711
   38    39     0     0     0
SMALL
USER_CHARGES

@<TRIPOS>ATOM
      1 C1          1.0970   -0.4571    0.7592 C.ar      1 <0>        -0.0468
      2 C2          2.2776    0.2514    0.7436 C.ar      1 <0>        -0.1218
      3 C3          2.3808    1.4178   -0.0072 C.ar      1 <0>         0.1700
      4 C4          1.2925    1.8732   -0.7443 C.ar      1 <0>        -0.1440
      5 C5          0.1086    1.1702   -0.7331 C.ar      1 <0>        -0.0486
      6 C6          0.0015   -0.0028    0.0194 C.ar      1 <0>        -0.0395
      7 C7         -1.2278   -0.7371    0.0329 C.1       1 <0>         0.2499
      8 N1         -2.2030   -1.3197    0.0435 N.1       1 <0>        -0.4103
      9 N2          3.5789    2.1332   -0.0207 N.am      1 <0>        -0.6693
     10 C8          4.7547    1.4802    0.0663 C.2       1 <0>         0.5217
     11 O1          4.7768    0.2676    0.0598 O.2       1 <0>        -0.4992
     12 C9          6.0419    2.2567    0.1718 C.3       1 <0>        -0.1662
     13 C10         7.2193    1.2833    0.2567 C.3       1 <0>         0.0092
     14 N3          8.4740    2.0403    0.3595 N.4       1 <0>        -0.4814
     15 C11         9.6044    1.1057    0.4410 C.3       1 <0>        -0.0193
     16 H1          9.5756    0.4255   -0.4102 H         1 <0>         0.1296
     17 C12        10.9175    1.8907    0.4224 C.3       1 <0>        -0.1810
     18 C13        11.8053    1.7532   -0.8161 C.3       1 <0>        -0.1780
     19 C14        12.2197    1.0912    0.4996 C.3       1 <0>        -0.1437
     20 C15         9.5105    0.3141    1.7199 C.2       1 <0>         0.4957
     21 O2          9.9530   -0.8210    1.7682 O.co2     1 <0>        -0.6340
     22 O3          8.9920    0.8087    2.7063 O.co2     1 <0>        -0.6693
     23 H2          1.0189   -1.3650    1.3388 H         1 <0>         0.1399
     24 H3          3.1243   -0.0988    1.3152 H         1 <0>         0.1464
     25 H4          1.3762    2.7794   -1.3258 H         1 <0>         0.1384
     26 H5         -0.7360    1.5245   -1.3053 H         1 <0>         0.1397
     27 H6          3.5655    3.1004   -0.0926 H         1 <0>         0.4170
     28 H7          6.1570    2.8903   -0.7077 H         1 <0>         0.1167
     29 H8          6.0190    2.8782    1.0669 H         1 <0>         0.1231
     30 H9          7.1041    0.6497    1.1361 H         1 <0>         0.1475
     31 H10         7.2421    0.6618   -0.6384 H         1 <0>         0.1312
     32 H11         8.5806    2.6268   -0.4546 H         1 <0>         0.4092
     33 H12        10.8924    2.8608    0.9188 H         1 <0>         0.1185
     34 H13        11.4539    1.1035   -1.6176 H         1 <0>         0.0997
     35 H14        12.3644    2.6330   -1.1348 H         1 <0>         0.1023
     36 H15        13.0514    1.5354    1.0464 H         1 <0>         0.1039
     37 H16        12.1409    0.0059    0.5636 H         1 <0>         0.1144
     38 H17         8.4528    2.6156    1.1881 H         1 <0>         0.4281
@<TRIPOS>BOND
     1    1    6 ar
     2    1    2 ar
     3    1   23 1
     4    2    3 ar
     5    2   24 1
     6    3    4 ar
     7    3    9 1
     8    4    5 ar
     9    4   25 1
    10    5    6 ar
    11    5   26 1
    12    6    7 1
    13    7    8 3
    14    9   10 am
    15    9   27 1
    16   10   11 2
    17   10   12 1
    18   12   13 1
    19   12   28 1
    20   12   29 1
    21   13   14 1
    22   13   30 1
    23   13   31 1
    24   14   15 1
    25   14   32 1
    26   14   38 1
    27   15   16 1
    28   15   17 1
    29   15   20 1
    30   17   19 1
    31   17   18 1
    32   17   33 1
    33   18   19 1
    34   18   34 1
    35   18   35 1
    36   19   36 1
    37   19   37 1
    38   20   21 2
    39   20   22 1
@<TRIPOS>MOLECULE
ZINC66987041
   40    40     0     0     0
SMALL
USER_CHARGES

@<TRIPOS>ATOM
      1 C1         -0.0167    1.3781    0.0096 C.ar      1 <0>        -0.0631
      2 C2          1.1709    2.0855    0.0021 C.ar      1 <0>        -0.1395
      3 C3          2.3773    1.4107   -0.0130 C.ar      1 <0>        -0.0249
      4 C4          2.3960    0.0285   -0.0201 C.ar      1 <0>        -0.6616
      5 C5          1.2084   -0.6789   -0.0117 C.ar      1 <0>        -0.0249
      6 C6          0.0021   -0.0041    0.0020 C.ar      1 <0>        -0.1394
      7 S1          3.9337   -0.8316   -0.0405 S.o2      1 <0>         2.4987
      8 O1          3.6411   -2.0831   -0.6466 O.2       1 <0>        -0.9330
      9 O2          4.8465    0.0719   -0.6485 O.2       1 <0>        -0.9330
     10 C7          4.3589   -1.0679    1.7070 C.3       1 <0>        -0.6067
     11 C8          5.6911   -1.8130    1.8115 C.3       1 <0>        -0.1279
     12 C9          6.0498   -2.0123    3.2855 C.3       1 <0>         0.1464
     13 N1          7.3254   -2.7258    3.3855 N.am      1 <0>        -0.7490
     14 C10         7.8430   -3.0143    4.5960 C.2       1 <0>         0.7051
     15 O3          7.2513   -2.6824    5.6050 O.2       1 <0>        -0.5882
     16 N2          9.0165   -3.6706    4.6881 N.am      1 <0>        -0.7457
     17 C11         9.5792   -3.9842    6.0039 C.3       1 <0>         0.1407
     18 C12        10.9055   -4.7263    5.8277 C.3       1 <0>        -0.1339
     19 C13        11.4932   -5.0538    7.2019 C.3       1 <0>         0.0790
     20 O4         12.7320   -5.7468    7.0373 O.3       1 <0>        -0.5753
     21 H1         -0.9591    1.9053    0.0259 H         1 <0>         0.1327
     22 H2          1.1563    3.1654    0.0076 H         1 <0>         0.1348
     23 H3          3.3051    1.9634   -0.0196 H         1 <0>         0.1427
     24 H4          1.2231   -1.7588   -0.0176 H         1 <0>         0.1427
     25 H5         -0.9258   -0.5567    0.0082 H         1 <0>         0.1348
     26 H6          4.4466   -0.0968    2.1942 H         1 <0>         0.1414
     27 H7          3.5776   -1.6502    2.1955 H         1 <0>         0.1414
     28 H8          5.6035   -2.7842    1.3244 H         1 <0>         0.0900
     29 H9          6.4724   -1.2307    1.3230 H         1 <0>         0.0900
     30 H10         6.1374   -1.0412    3.7726 H         1 <0>         0.0737
     31 H11         5.2685   -2.5946    3.7740 H         1 <0>         0.0737
     32 H12         7.7974   -2.9905    2.5806 H         1 <0>         0.3988
     33 H13         9.4886   -3.9354    3.8831 H         1 <0>         0.3985
     34 H14         9.7505   -3.0598    6.5555 H         1 <0>         0.0697
     35 H15         8.8816   -4.6133    6.5568 H         1 <0>         0.0697
     36 H16        10.7342   -5.6507    5.2761 H         1 <0>         0.0776
     37 H17        11.6032   -4.0972    5.2748 H         1 <0>         0.0776
     38 H18        11.6645   -4.1294    7.7534 H         1 <0>         0.0506
     39 H19        10.7956   -5.6828    7.7548 H         1 <0>         0.0506
     40 H20        13.1620   -5.9867    7.8695 H         1 <0>         0.3846
@<TRIPOS>BOND
     1    1    6 ar
     2    1    2 ar
     3    1   21 1
     4    2    3 ar
     5    2   22 1
     6    3    4 ar
     7    3   23 1
     8    4    5 ar
     9    4    7 1
    10    5    6 ar
    11    5   24 1
    12    6   25 1
    13    7    8 2
    14    7    9 2
    15    7   10 1
    16   10   11 1
    17   10   26 1
    18   10   27 1
    19   11   12 1
    20   11   28 1
    21   11   29 1
    22   12   13 1
    23   12   30 1
    24   12   31 1
    25   13   14 am
    26   13   32 1
    27   14   15 2
    28   14   16 am
    29   16   17 1
    30   16   33 1
    31   17   18 1
    32   17   34 1
    33   17   35 1
    34   18   19 1
    35   18   36 1
    36   18   37 1
    37   19   20 1
    38   19   38 1
    39   19   39 1
    40   20   40 1
@<TRIPOS>MOLECULE
ZINC35797345
   33    33     0     0     0
SMALL
USER_CHARGES

@<TRIPOS>ATOM
      1 C1         -0.0225    1.8097    0.0120 C.3       1 <0>        -0.6734
      2 S1          0.0021   -0.0041    0.0020 S.o2      1 <0>         2.6164
      3 O1          0.8352   -0.4880    1.0465 O.2       1 <0>        -0.9523
      4 O2         -1.3147   -0.5105   -0.1678 O.2       1 <0>        -0.9550
      5 N1          0.7947   -0.4113   -1.3938 N.pl3     1 <0>        -1.1191
      6 C2          2.2072   -0.0612   -1.5629 C.3       1 <0>         0.1031
      7 C3          2.7924   -0.8537   -2.7335 C.3       1 <0>         0.0998
      8 N2          4.2049   -0.5036   -2.9026 N.pl3     1 <0>        -1.1127
      9 S2          5.1885   -1.4569   -3.8332 S.o2      1 <0>         2.6997
     10 O3          6.4723   -0.8478   -3.8229 O.2       1 <0>        -0.9557
     11 O4          4.9773   -2.7961   -3.4074 O.2       1 <0>        -0.9410
     12 C4          4.5964   -1.3558   -5.4896 C.ar      1 <0>        -0.7310
     13 C5          5.3864   -0.7860   -6.4712 C.ar      1 <0>         0.0402
     14 C6          4.9256   -0.7051   -7.7704 C.ar      1 <0>        -0.2122
     15 C7          3.6666   -1.1974   -8.0918 C.ar      1 <0>         0.2808
     16 C8          2.8752   -1.7696   -7.1046 C.ar      1 <0>        -0.2074
     17 C9          3.3441   -1.8520   -5.8067 C.ar      1 <0>         0.0958
     18 Cl1         2.3588   -2.5730   -4.5726 Cl        1 <0>        -0.0399
     19 N3          3.1979   -1.1164   -9.4050 N.pl3     1 <0>        -0.8591
     20 H1          1.0001    2.1870    0.0043 H         1 <0>         0.1276
     21 H2         -0.5497    2.1708   -0.8711 H         1 <0>         0.1297
     22 H3         -0.5327    2.1613    0.9088 H         1 <0>         0.1312
     23 H4          0.3237   -0.8815   -2.0994 H         1 <0>         0.4200
     24 H5          2.2952    1.0060   -1.7665 H         1 <0>         0.0750
     25 H6          2.7532   -0.3034   -0.6511 H         1 <0>         0.0936
     26 H7          2.7044   -1.9209   -2.5299 H         1 <0>         0.0946
     27 H8          2.2464   -0.6115   -3.6453 H         1 <0>         0.0811
     28 H9          4.5640    0.2865   -2.4694 H         1 <0>         0.4219
     29 H10         6.3649   -0.4034   -6.2213 H         1 <0>         0.1536
     30 H11         5.5431   -0.2592   -8.5361 H         1 <0>         0.1388
     31 H12         1.8960   -2.1528   -7.3511 H         1 <0>         0.1422
     32 H13         3.7514   -0.7162  -10.0938 H         1 <0>         0.4076
     33 H14         2.3188   -1.4604   -9.6283 H         1 <0>         0.4063
@<TRIPOS>BOND
     1    1    2 1
     2    1   20 1
     3    1   21 1
     4    1   22 1
     5    2    3 2
     6    2    4 2
     7    2    5 1
     8    5    6 1
     9    5   23 1
    10    6    7 1
    11    6   24 1
    12    6   25 1
    13    7    8 1
    14    7   26 1
    15    7   27 1
    16    8    9 1
    17    8   28 1
    18    9   10 2
    19    9   11 2
    20    9   12 1
    21   12   17 ar
    22   12   13 ar
    23   13   14 ar
    24   13   29 1
    25   14   15 ar
    26   14   30 1
    27   15   16 ar
    28   15   19 1
    29   16   17 ar
    30   16   31 1
    31   17   18 1
    32   19   32 1
    33   19   33 1
@<TRIPOS>MOLECULE
ZINC40335978
   39    39     0     0     0
SMALL
USER_CHARGES

@<TRIPOS>ATOM
      1 C1         -0.0187    1.5258    0.0104 C.3       1 <0>        -0.1786
      2 C2          0.0021   -0.0041    0.0020 C.3       1 <0>         0.1076
      3 N1          0.6878   -0.4765   -1.2033 N.pl3     1 <0>        -0.9981
      4 C3          2.1478   -0.5966   -1.2159 C.3       1 <0>         0.1286
      5 C4          2.5532   -1.9514   -0.6319 C.3       1 <0>        -0.1548
      6 C5          4.0780   -2.0767   -0.6451 C.3       1 <0>         0.1224
      7 N2          4.4662   -3.3740   -0.0858 N.am      1 <0>        -0.7325
      8 C6          5.7692   -3.7067    0.0032 C.2       1 <0>         0.5902
      9 O1          6.6233   -2.9295   -0.3810 O.2       1 <0>        -0.5257
     10 C7          6.1577   -5.0052    0.5630 C.2       1 <0>        -0.0307
     11 C8          7.4465   -5.4720    0.7184 C.2       1 <0>        -0.1511
     12 C9          7.3570   -6.7493    1.2888 C.2       1 <0>         0.1157
     13 C10         6.0402   -7.0324    1.4673 C.2       1 <0>        -0.0563
     14 N3          5.3029   -5.9752    1.0335 N.pl3     1 <0>        -0.5356
     15 H1          4.3349   -5.9157    1.0510 H         1 <0>         0.4165
     16 N4          8.4379   -7.5885    1.6178 N.pl3     1 <0>        -0.8788
     17 S1         -0.1875   -0.8749   -2.5515 S.o2      1 <0>         2.6065
     18 O2          0.6199   -1.8184   -3.2423 O.2       1 <0>        -0.9514
     19 O3         -1.4681   -1.2418   -2.0570 O.2       1 <0>        -0.9540
     20 C11        -0.3030    0.6646   -3.5040 C.3       1 <0>        -0.6750
     21 H2          1.0039    1.9031    0.0027 H         1 <0>         0.0629
     22 H3         -0.5459    1.8868   -0.8726 H         1 <0>         0.0537
     23 H4         -0.5289    1.8773    0.9072 H         1 <0>         0.0723
     24 H5          0.5293   -0.3651    0.8851 H         1 <0>         0.0846
     25 H6         -1.0205   -0.3814    0.0098 H         1 <0>         0.0960
     26 H7          2.5098   -0.5199   -2.2412 H         1 <0>         0.0865
     27 H8          2.5833    0.2026   -0.6162 H         1 <0>         0.0860
     28 H9          2.1912   -2.0280    0.3934 H         1 <0>         0.0752
     29 H10         2.1177   -2.7506   -1.2316 H         1 <0>         0.0815
     30 H11         4.4400   -2.0001   -1.6704 H         1 <0>         0.0749
     31 H12         4.5135   -1.2775   -0.0453 H         1 <0>         0.0731
     32 H13         3.7854   -3.9934    0.2204 H         1 <0>         0.3954
     33 H14         8.3540   -4.9512    0.4508 H         1 <0>         0.1470
     34 H15         5.6444   -7.9449    1.8882 H         1 <0>         0.1670
     35 H16         9.3475   -7.2956    1.4513 H         1 <0>         0.3985
     36 H17         8.2732   -8.4598    2.0111 H         1 <0>         0.3955
     37 H18         0.6988    1.0090   -3.7608 H         1 <0>         0.1282
     38 H19        -0.8708    0.4853   -4.4170 H         1 <0>         0.1290
     39 H20        -0.8064    1.4246   -2.9064 H         1 <0>         0.1278
@<TRIPOS>BOND
     1    1    2 1
     2    1   21 1
     3    1   22 1
     4    1   23 1
     5    2    3 1
     6    2   24 1
     7    2   25 1
     8    3    4 1
     9    3   17 1
    10    4    5 1
    11    4   26 1
    12    4   27 1
    13    5    6 1
    14    5   28 1
    15    5   29 1
    16    6    7 1
    17    6   30 1
    18    6   31 1
    19    7    8 am
    20    7   32 1
    21    8    9 2
    22    8   10 1
    23   10   14 1
    24   10   11 2
    25   11   12 1
    26   11   33 1
    27   12   13 2
    28   12   16 1
    29   13   14 1
    30   13   34 1
    31   14   15 1
    32   16   35 1
    33   16   36 1
    34   17   18 2
    35   17   19 2
    36   17   20 1
    37   20   37 1
    38   20   38 1
    39   20   39 1
@<TRIPOS>MOLECULE
ZINC47963206
   37    37     0     0     0
SMALL
USER_CHARGES

@<TRIPOS>ATOM
      1 C1         -0.0187    1.5258    0.0104 C.3       1 <0>        -0.1531
      2 C2          0.0021   -0.0041    0.0020 C.3       1 <0>         0.0575
      3 O1         -1.3386   -0.4987    0.0122 O.3       1 <0>        -0.3898
      4 C3         -1.4321   -1.9246    0.0054 C.3       1 <0>         0.0661
      5 C4         -2.9048   -2.3392    0.0172 C.3       1 <0>        -0.1330
      6 C5         -3.0049   -3.8659    0.0100 C.3       1 <0>         0.1193
      7 N1         -4.4150   -4.2629    0.0213 N.am      1 <0>        -0.6941
      8 C6         -4.7475   -5.5690    0.0175 C.2       1 <0>         0.5168
      9 O2         -3.8786   -6.4163    0.0046 O.2       1 <0>        -0.5013
     10 C7         -6.1845   -5.9735    0.0290 C.2       1 <0>         0.5000
     11 O3         -7.0535   -5.1261    0.0419 O.2       1 <0>        -0.4806
     12 N2         -6.5169   -7.2797    0.0252 N.am      1 <0>        -0.5824
     13 C8         -7.8491   -7.6547    0.0359 C.2       1 <0>         0.0719
     14 C9         -8.3739   -8.9397    0.0396 C.2       1 <0>        -0.2604
     15 C10        -9.8139   -9.0493    0.0513 C.2       1 <0>        -0.1024
     16 C11       -10.4911   -7.8853    0.0573 C.2       1 <0>        -0.2476
     17 S1         -9.2005   -6.6604    0.0547 S.3       1 <0>         0.2911
     18 C12        -7.5104  -10.1252    0.0316 C.2       1 <0>         0.5873
     19 O4         -6.3002   -9.9965    0.0214 O.2       1 <0>        -0.5575
     20 N3         -8.0571  -11.3571    0.0356 N.am      1 <0>        -0.8475
     21 H1          1.0039    1.9031    0.0027 H         1 <0>         0.0724
     22 H2         -0.5459    1.8868   -0.8726 H         1 <0>         0.0634
     23 H3         -0.5289    1.8773    0.9072 H         1 <0>         0.0634
     24 H4          0.5123   -0.3556   -0.8948 H         1 <0>         0.0497
     25 H5          0.5293   -0.3651    0.8851 H         1 <0>         0.0497
     26 H6         -0.9516   -2.3160   -0.8913 H         1 <0>         0.0542
     27 H7         -0.9346   -2.3255    0.8885 H         1 <0>         0.0542
     28 H8         -3.3852   -1.9478    0.9140 H         1 <0>         0.0828
     29 H9         -3.4022   -1.9383   -0.8659 H         1 <0>         0.0828
     30 H10        -2.5244   -4.2573   -0.8867 H         1 <0>         0.0802
     31 H11        -2.5074   -4.2668    0.8931 H         1 <0>         0.0802
     32 H12        -5.1094   -3.5857    0.0316 H         1 <0>         0.4167
     33 H13        -5.8225   -7.9568    0.0149 H         1 <0>         0.4452
     34 H14       -10.3165  -10.0052    0.0547 H         1 <0>         0.1451
     35 H15       -11.5602   -7.7321    0.0661 H         1 <0>         0.1921
     36 H16        -9.0217  -11.4597    0.0437 H         1 <0>         0.4017
     37 H17        -7.4861  -12.1412    0.0303 H         1 <0>         0.4057
@<TRIPOS>BOND
     1    1    2 1
     2    1   21 1
     3    1   22 1
     4    1   23 1
     5    2    3 1
     6    2   24 1
     7    2   25 1
     8    3    4 1
     9    4    5 1
    10    4   26 1
    11    4   27 1
    12    5    6 1
    13    5   28 1
    14    5   29 1
    15    6    7 1
    16    6   30 1
    17    6   31 1
    18    7    8 am
    19    7   32 1
    20    8    9 2
    21    8   10 1
    22   10   11 2
    23   10   12 am
    24   12   13 1
    25   12   33 1
    26   13   17 1
    27   13   14 2
    28   14   15 1
    29   14   18 1
    30   15   16 2
    31   15   34 1
    32   16   17 1
    33   16   35 1
    34   18   19 2
    35   18   20 am
    36   20   36 1
    37   20   37 1
@<TRIPOS>MOLECULE
ZINC42272675
   39    39     0     0     0
SMALL
USER_CHARGES

@<TRIPOS>ATOM
      1 C1          0.2023    1.6621   -0.3812 C.3       1 <0>        -0.1538
      2 C2          0.0975    0.2770    0.2601 C.3       1 <0>        -0.1144
      3 C3          0.8719    0.2661    1.5796 C.3       1 <0>        -0.1459
      4 C4         -1.3726   -0.0508    0.5289 C.3       1 <0>         0.1269
      5 N1         -2.0974   -0.1217   -0.7423 N.pl3     1 <0>        -0.9731
      6 C5         -2.0162   -1.3310   -1.5653 C.3       1 <0>         0.0861
      7 C6         -3.0399   -2.3305   -1.0917 C.2       1 <0>         0.4872
      8 O1         -3.7657   -2.0594   -0.1587 O.2       1 <0>        -0.5227
      9 N2         -3.1487   -3.5257   -1.7051 N.am      1 <0>        -0.8491
     10 S1         -3.0083    1.1650   -1.2490 S.o2      1 <0>         2.6860
     11 O2         -2.5814    2.2885   -0.4908 O.2       1 <0>        -0.9434
     12 O3         -2.9791    1.1490   -2.6696 O.2       1 <0>        -0.9527
     13 C7         -4.6746    0.8421   -0.7759 C.ar      1 <0>        -0.6897
     14 C8         -5.2399    1.5342    0.2759 C.ar      1 <0>         0.0313
     15 C9         -6.5465    1.2847    0.6510 C.ar      1 <0>        -0.1927
     16 C10        -7.3005    0.3344   -0.0283 C.ar      1 <0>         0.2697
     17 C11        -6.7424   -0.3664   -1.0861 C.ar      1 <0>        -0.1645
     18 C12        -5.4251   -0.1100   -1.4689 C.ar      1 <0>         0.1355
     19 C13        -4.8430   -0.8254   -2.5643 C.1       1 <0>         0.2230
     20 N3         -4.3813   -1.3928   -3.4334 N.1       1 <0>        -0.3669
     21 N4         -8.6205    0.0854    0.3556 N.pl3     1 <0>        -0.8625
     22 H1          1.2521    1.9364   -0.4843 H         1 <0>         0.0584
     23 H2         -0.2666    1.6434   -1.3651 H         1 <0>         0.0403
     24 H3         -0.3041    2.3934    0.2487 H         1 <0>         0.0757
     25 H4          0.5186   -0.4685   -0.4144 H         1 <0>         0.0733
     26 H5          0.4509    1.0116    2.2542 H         1 <0>         0.0602
     27 H6          0.7973   -0.7207    2.0365 H         1 <0>         0.0561
     28 H7          1.9193    0.4996    1.3882 H         1 <0>         0.0600
     29 H8         -1.4431   -1.0102    1.0414 H         1 <0>         0.0823
     30 H9         -1.8101    0.7279    1.1536 H         1 <0>         0.0936
     31 H10        -2.2124   -1.0757   -2.6066 H         1 <0>         0.1212
     32 H11        -1.0193   -1.7632   -1.4787 H         1 <0>         0.1190
     33 H12        -2.5682   -3.7425   -2.4513 H         1 <0>         0.4040
     34 H13        -3.8076   -4.1690   -1.4002 H         1 <0>         0.4031
     35 H14        -4.6591    2.2731    0.8079 H         1 <0>         0.1515
     36 H15        -6.9832    1.8295    1.4749 H         1 <0>         0.1385
     37 H16        -7.3263   -1.1053   -1.6149 H         1 <0>         0.1368
     38 H17        -9.0109    0.5755    1.0960 H         1 <0>         0.4067
     39 H18        -9.1466   -0.5776   -0.1183 H         1 <0>         0.4049
@<TRIPOS>BOND
     1    1    2 1
     2    1   22 1
     3    1   23 1
     4    1   24 1
     5    2    3 1
     6    2    4 1
     7    2   25 1
     8    3   26 1
     9    3   27 1
    10    3   28 1
    11    4    5 1
    12    4   29 1
    13    4   30 1
    14    5    6 1
    15    5   10 1
    16    6    7 1
    17    6   31 1
    18    6   32 1
    19    7    8 2
    20    7    9 am
    21    9   33 1
    22    9   34 1
    23   10   11 2
    24   10   12 2
    25   10   13 1
    26   13   18 ar
    27   13   14 ar
    28   14   15 ar
    29   14   35 1
    30   15   16 ar
    31   15   36 1
    32   16   17 ar
    33   16   21 1
    34   17   18 ar
    35   17   37 1
    36   18   19 1
    37   19   20 3
    38   21   38 1
    39   21   39 1
@<TRIPOS>MOLECULE
ZINC63132770
   28    29     0     0     0
SMALL
USER_CHARGES

@<TRIPOS>ATOM
      1 C1         -0.0158    1.3139    0.0093 C.2       1 <0>         0.0335
      2 C2          1.1859    1.9456    0.0012 C.2       1 <0>        -0.2255
      3 S1          2.2937    0.5453   -0.0169 S.3       1 <0>         0.1089
      4 C3          1.1295   -0.6703   -0.0123 C.2       1 <0>         0.0462
      5 N1          0.0021   -0.0041    0.0020 N.2       1 <0>        -0.5091
      6 C4          1.3347   -2.1632   -0.0223 C.3       1 <0>        -0.0366
      7 C5          1.3904   -2.6607   -1.4681 C.3       1 <0>         0.1149
      8 N2          1.5899   -4.1120   -1.4778 N.pl3     1 <0>        -1.1172
      9 S2          1.3217   -4.9754   -2.8652 S.o2      1 <0>         2.7274
     10 O1          1.6232   -6.3312   -2.5646 O.2       1 <0>        -0.9603
     11 O2          0.0525   -4.5684   -3.3579 O.2       1 <0>        -0.9549
     12 C6          2.5150   -4.4446   -4.0480 C.2       1 <0>        -0.8527
     13 C7          3.5002   -5.2028   -4.5805 C.2       1 <0>         0.2093
     14 N3          4.1964   -4.4316   -5.4419 N.pl3     1 <0>        -0.4507
     15 H1          4.9607   -4.7129   -5.9688 H         1 <0>         0.4479
     16 N4          3.6225   -3.1538   -5.4420 N.2       1 <0>        -0.3455
     17 C8          2.6080   -3.1608   -4.6097 C.2       1 <0>         0.4149
     18 N5          1.7676   -2.0773   -4.3284 N.pl3     1 <0>        -0.8428
     19 H2         -0.9439    1.8660    0.0255 H         1 <0>         0.1750
     20 H3          1.4098    3.0021    0.0047 H         1 <0>         0.1980
     21 H4          2.2708   -2.4047    0.4813 H         1 <0>         0.1015
     22 H5          0.5075   -2.6472    0.4969 H         1 <0>         0.1106
     23 H6          0.4544   -2.4193   -1.9717 H         1 <0>         0.0869
     24 H7          2.2177   -2.1768   -1.9873 H         1 <0>         0.0765
     25 H8          1.8791   -4.5673   -0.6715 H         1 <0>         0.4222
     26 H9          3.6953   -6.2411   -4.3562 H         1 <0>         0.1993
     27 H10         1.0416   -2.1788   -3.6932 H         1 <0>         0.4105
     28 H11         1.9113   -1.2250   -4.7686 H         1 <0>         0.4120
@<TRIPOS>BOND
     1    1    5 1
     2    1    2 2
     3    1   19 1
     4    2    3 1
     5    2   20 1
     6    3    4 1
     7    4    5 2
     8    4    6 1
     9    6    7 1
    10    6   21 1
    11    6   22 1
    12    7    8 1
    13    7   23 1
    14    7   24 1
    15    8    9 1
    16    8   25 1
    17    9   10 2
    18    9   11 2
    19    9   12 1
    20   12   17 1
    21   12   13 2
    22   13   14 1
    23   13   26 1
    24   14   15 1
    25   14   16 1
    26   16   17 2
    27   17   18 1
    28   18   27 1
    29   18   28 1
@<TRIPOS>MOLECULE
ZINC40384177
   34    34     0     0     0
SMALL
USER_CHARGES

@<TRIPOS>ATOM
      1 C1          1.5756    1.8728    0.6961 C.3       1 <0>        -0.1249
      2 C2          1.5513    0.3476    0.8142 C.3       1 <0>        -0.1134
      3 C3          2.4579   -0.2614   -0.2574 C.3       1 <0>        -0.1051
      4 C4          1.9576    0.1509   -1.6432 C.3       1 <0>        -0.5870
      5 C5          1.9818    1.6762   -1.7612 C.3       1 <0>        -0.1082
      6 C6          1.0752    2.2851   -0.6897 C.3       1 <0>        -0.1110
      7 S1          3.0325   -0.5710   -2.9136 S.o2      1 <0>         2.6051
      8 O1          2.4625   -0.3829   -4.2016 O.2       1 <0>        -0.9508
      9 O2          4.3875   -0.2239   -2.6633 O.2       1 <0>        -0.9489
     10 N1          2.9600   -2.2050   -2.6541 N.pl3     1 <0>        -1.1128
     11 C7          1.6900   -2.9169   -2.8166 C.3       1 <0>         0.1265
     12 C8          1.9577   -4.4195   -2.9237 C.3       1 <0>        -0.6409
     13 S2          0.3851   -5.3010   -3.1250 S.o2      1 <0>         2.6217
     14 O3         -0.3860   -5.2041   -1.9354 O.2       1 <0>        -0.9556
     15 O4         -0.1897   -4.9944   -4.3878 O.2       1 <0>        -0.9527
     16 N2          0.8037   -6.8999   -3.2282 N.pl3     1 <0>        -1.2488
     17 H1          0.9297    2.3066    1.4595 H         1 <0>         0.0675
     18 H2          2.5952    2.2319    0.8360 H         1 <0>         0.0658
     19 H3          1.9078    0.0538    1.8015 H         1 <0>         0.0705
     20 H4          0.5317   -0.0115    0.6743 H         1 <0>         0.0670
     21 H5          3.4775    0.0977   -0.1175 H         1 <0>         0.0828
     22 H6          2.4407   -1.3480   -0.1733 H         1 <0>         0.0772
     23 H7          0.9380   -0.2082   -1.7830 H         1 <0>         0.1380
     24 H8          3.0014    2.0352   -1.6214 H         1 <0>         0.0807
     25 H9          1.6254    1.9699   -2.7486 H         1 <0>         0.0800
     26 H10         0.0556    1.9260   -0.8296 H         1 <0>         0.0678
     27 H11         1.0925    3.3717   -0.7738 H         1 <0>         0.0720
     28 H12         3.7585   -2.6907   -2.3944 H         1 <0>         0.4225
     29 H13         1.0514   -2.7221   -1.9550 H         1 <0>         0.0844
     30 H14         1.1930   -2.5709   -3.7229 H         1 <0>         0.0990
     31 H15         2.5963   -4.6143   -3.7853 H         1 <0>         0.1478
     32 H16         2.4547   -4.7655   -2.0174 H         1 <0>         0.1459
     33 H17         1.7363   -7.1614   -3.1759 H         1 <0>         0.4142
     34 H18         0.1163   -7.5749   -3.3409 H         1 <0>         0.4237
@<TRIPOS>BOND
     1    1    6 1
     2    1    2 1
     3    1   17 1
     4    1   18 1
     5    2    3 1
     6    2   19 1
     7    2   20 1
     8    3    4 1
     9    3   21 1
    10    3   22 1
    11    4    5 1
    12    4    7 1
    13    4   23 1
    14    5    6 1
    15    5   24 1
    16    5   25 1
    17    6   26 1
    18    6   27 1
    19    7    8 2
    20    7    9 2
    21    7   10 1
    22   10   11 1
    23   10   28 1
    24   11   12 1
    25   11   29 1
    26   11   30 1
    27   12   13 1
    28   12   31 1
    29   12   32 1
    30   13   14 2
    31   13   15 2
    32   13   16 1
    33   16   33 1
    34   16   34 1
@<TRIPOS>MOLECULE
ZINC44860763
   34    33     0     0     0
SMALL
USER_CHARGES

@<TRIPOS>ATOM
      1 C1          0.4842   -1.7624   -1.0509 C.3       1 <0>        -0.1537
      2 C2         -0.7313   -1.8958   -0.1314 C.3       1 <0>        -0.1026
      3 C3         -1.3469   -0.5150    0.1039 C.3       1 <0>        -0.1012
      4 H1         -0.5809    0.1657    0.4753 H         1 <0>         0.1106
      5 C4         -2.4555   -0.6255    1.1187 C.2       1 <0>         0.2848
      6 S1         -3.9807   -0.6345    0.6388 S.2       1 <0>        -0.4153
      7 N1         -2.1613   -0.7168    2.4308 N.pl3     1 <0>        -0.7767
      8 C5         -1.9036    0.0144   -1.1926 C.2       1 <0>         0.5453
      9 O1         -2.2902   -0.7559   -2.0459 O.2       1 <0>        -0.5058
     10 N2         -1.9718    1.3437   -1.4037 N.am      1 <0>        -0.7302
     11 C6         -2.6096    1.8609   -2.6170 C.3       1 <0>         0.1301
     12 C7         -2.5534    3.3898   -2.6107 C.3       1 <0>        -0.1248
     13 C8         -3.2195    3.9299   -3.8778 C.3       1 <0>        -0.6112
     14 S2         -3.1529    5.7427   -3.8702 S.o2      1 <0>         2.4217
     15 O2         -3.9465    6.2171   -2.7912 O.2       1 <0>        -0.9371
     16 O3         -1.7920    6.1428   -3.9553 O.2       1 <0>        -0.9383
     17 C9         -3.9780    6.1805   -5.4253 C.3       1 <0>        -0.6552
     18 H2          0.9792   -2.7293   -1.1414 H         1 <0>         0.0661
     19 H3          0.1596   -1.4268   -2.0359 H         1 <0>         0.0641
     20 H4          1.1798   -1.0360   -0.6306 H         1 <0>         0.0551
     21 H5         -1.4697   -2.5481   -0.5976 H         1 <0>         0.0898
     22 H6         -0.4204   -2.3223    0.8223 H         1 <0>         0.0716
     23 H7         -1.2361   -0.7113    2.7220 H         1 <0>         0.3986
     24 H8         -2.8749   -0.7879    3.0840 H         1 <0>         0.4217
     25 H9         -1.5987    1.9581   -0.7524 H         1 <0>         0.3985
     26 H10        -2.0842    1.4816   -3.4935 H         1 <0>         0.0740
     27 H11        -3.6495    1.5356   -2.6478 H         1 <0>         0.0778
     28 H12        -3.0788    3.7691   -1.7342 H         1 <0>         0.0887
     29 H13        -1.5135    3.7151   -2.5799 H         1 <0>         0.0875
     30 H14        -2.6941    3.5507   -4.7543 H         1 <0>         0.1373
     31 H15        -4.2593    3.6047   -3.9085 H         1 <0>         0.1383
     32 H16        -4.9982    5.7967   -5.4158 H         1 <0>         0.1296
     33 H17        -3.9987    7.2649   -5.5328 H         1 <0>         0.1317
     34 H18        -3.4329    5.7428   -6.2616 H         1 <0>         0.1292
@<TRIPOS>BOND
     1    1    2 1
     2    1   18 1
     3    1   19 1
     4    1   20 1
     5    2    3 1
     6    2   21 1
     7    2   22 1
     8    3    4 1
     9    3    5 1
    10    3    8 1
    11    5    6 2
    12    5    7 1
    13    7   23 1
    14    7   24 1
    15    8    9 2
    16    8   10 am
    17   10   11 1
    18   10   25 1
    19   11   12 1
    20   11   26 1
    21   11   27 1
    22   12   13 1
    23   12   28 1
    24   12   29 1
    25   13   14 1
    26   13   30 1
    27   13   31 1
    28   14   15 2
    29   14   16 2
    30   14   17 1
    31   17   32 1
    32   17   33 1
    33   17   34 1
@<TRIPOS>MOLECULE
ZINC49199141
   35    35     0     0     0
SMALL
USER_CHARGES

@<TRIPOS>ATOM
      1 C1         -0.0377    1.4612   -0.0024 C.3       1 <0>         0.0848
      2 N1         -0.0104   -0.0035   -0.0061 N.am      1 <0>        -0.7349
      3 C2          0.5706   -0.6642   -1.0271 C.2       1 <0>         0.5164
      4 O1          1.0708   -0.0461   -1.9429 O.2       1 <0>        -0.5322
      5 C3          0.5987   -2.1709   -1.0309 C.3       1 <0>        -0.1562
      6 C4          1.3107   -2.6646   -2.2919 C.3       1 <0>         0.1314
      7 N2          1.3380   -4.1293   -2.2956 N.am      1 <0>        -0.7000
      8 C5          1.9190   -4.7900   -3.3166 C.2       1 <0>         0.5116
      9 O2          2.4195   -4.1714   -4.2329 O.2       1 <0>        -0.5080
     10 C6          1.9468   -6.2832   -3.3203 C.2       1 <0>         0.5095
     11 O3          1.4462   -6.9018   -2.4038 O.2       1 <0>        -0.4978
     12 N3          2.5278   -6.9439   -4.3413 N.am      1 <0>        -0.6425
     13 C7          2.6397   -8.3362   -4.2991 C.ar      1 <0>         0.1365
     14 C8          3.7582   -8.9606   -4.8397 C.ar      1 <0>        -0.1270
     15 C9          3.8732  -10.3371   -4.8003 C.ar      1 <0>        -0.0979
     16 C10         2.8786  -11.1012   -4.2236 C.ar      1 <0>        -0.1046
     17 C11         1.7519  -10.4841   -3.6782 C.ar      1 <0>         0.0279
     18 C12         1.6379   -9.0949   -3.7130 C.ar      1 <0>        -0.0959
     19 C13         0.7185  -11.2749   -3.0803 C.1       1 <0>        -0.1547
     20 C14        -0.1286  -11.9231   -2.5901 C.1       1 <0>        -0.1650
     21 H1          0.9829    1.8436   -0.0167 H         1 <0>         0.0618
     22 H2         -0.5713    1.8169   -0.8838 H         1 <0>         0.0618
     23 H3         -0.5449    1.8129    0.8959 H         1 <0>         0.0777
     24 H4         -0.4105   -0.4979    0.7263 H         1 <0>         0.4040
     25 H5          1.1323   -2.5266   -0.1495 H         1 <0>         0.1055
     26 H6         -0.4219   -2.5533   -1.0166 H         1 <0>         0.1055
     27 H7          0.7770   -2.3089   -3.1733 H         1 <0>         0.0859
     28 H8          2.3313   -2.2821   -2.3062 H         1 <0>         0.0858
     29 H9          0.9379   -4.6237   -1.5631 H         1 <0>         0.4139
     30 H10         2.8683   -6.4529   -5.1055 H         1 <0>         0.4259
     31 H11         4.5395   -8.3679   -5.2922 H         1 <0>         0.1337
     32 H12         4.7440  -10.8167   -5.2224 H         1 <0>         0.1364
     33 H13         2.9723  -12.1768   -4.1947 H         1 <0>         0.1307
     34 H14         0.7701   -8.6117   -3.2889 H         1 <0>         0.1441
     35 H15        -0.8864  -12.5029   -2.1517 H         1 <0>         0.2260
@<TRIPOS>BOND
     1    1    2 1
     2    1   21 1
     3    1   22 1
     4    1   23 1
     5    2    3 am
     6    2   24 1
     7    3    4 2
     8    3    5 1
     9    5    6 1
    10    5   25 1
    11    5   26 1
    12    6    7 1
    13    6   27 1
    14    6   28 1
    15    7    8 am
    16    7   29 1
    17    8    9 2
    18    8   10 1
    19   10   11 2
    20   10   12 am
    21   12   13 1
    22   12   30 1
    23   13   18 ar
    24   13   14 ar
    25   14   15 ar
    26   14   31 1
    27   15   16 ar
    28   15   32 1
    29   16   17 ar
    30   16   33 1
    31   17   18 ar
    32   17   19 1
    33   18   34 1
    34   19   20 3
    35   20   35 1
@<TRIPOS>MOLECULE
ZINC52942980
   46    46     0     0     0
SMALL
NO_CHARGES

@<TRIPOS>ATOM
      1 C1          0.6560    0.9743    0.5288 C.3       1 <0>        -0.1475
      2 C2          0.3201   -0.4794    0.1900 C.3       1 <0>        -0.1061
      3 H1          0.5164   -0.6609   -0.8667 H         1 <0>         0.0579
      4 C3         -1.1573   -0.7439    0.4870 C.3       1 <0>        -0.1122
      5 C4         -1.4933   -2.1976    0.1482 C.3       1 <0>        -0.0159
      6 C5         -0.6275   -3.1320    0.9957 C.3       1 <0>        -0.1076
      7 C6          0.8499   -2.8675    0.6986 C.3       1 <0>        -0.0759
      8 C7          1.1859   -1.4138    1.0374 C.3       1 <0>        -0.1102
      9 C8          1.1255   -3.1223   -0.7846 C.3       1 <0>        -0.1854
     10 C9          1.7157   -3.8019    1.5461 C.3       1 <0>        -0.1419
     11 C10        -2.9485   -2.4582    0.4408 C.2       1 <0>         0.5003
     12 O1         -3.6470   -3.0149   -0.3891 O.co2     1 <0>        -0.6626
     13 O2         -3.4273   -2.1123    1.5073 O.co2     1 <0>        -0.6333
     14 N1         -1.2287   -2.4422   -1.2759 N.4       1 <0>        -0.4866
     15 C11        -2.1692   -1.6607   -2.0900 C.3       1 <0>        -0.0312
     16 C12        -1.7957   -1.7921   -3.5679 C.3       1 <0>         0.0391
     17 O3         -1.9708   -3.1476   -3.9848 O.3       1 <0>        -0.3800
     18 C13        -1.6475   -3.3801   -5.3571 C.3       1 <0>         0.0612
     19 C14        -1.8710   -4.8564   -5.6908 C.3       1 <0>         0.0761
     20 O4         -3.2609   -5.1665   -5.5721 O.3       1 <0>        -0.5641
     21 H2          1.7086    1.1627    0.3172 H         1 <0>         0.0603
     22 H3          0.0392    1.6400   -0.0749 H         1 <0>         0.0590
     23 H4          0.4597    1.1558    1.5855 H         1 <0>         0.0645
     24 H5         -1.3537   -0.5624    1.5437 H         1 <0>         0.1116
     25 H6         -1.7742   -0.0783   -0.1167 H         1 <0>         0.0773
     26 H7         -0.8238   -2.9505    2.0523 H         1 <0>         0.1084
     27 H8         -0.8669   -4.1677    0.7543 H         1 <0>         0.0807
     28 H9          2.2384   -1.2253    0.8259 H         1 <0>         0.0734
     29 H10         0.9895   -1.2323    2.0941 H         1 <0>         0.0794
     30 H11         1.1466   -2.1723   -1.3186 H         1 <0>         0.0669
     31 H12         2.0877   -3.6224   -0.8947 H         1 <0>         0.0880
     32 H13         0.3385   -3.7536   -1.1972 H         1 <0>         0.0562
     33 H14         1.4764   -4.8375    1.3047 H         1 <0>         0.0609
     34 H15         2.7683   -3.6134    1.3345 H         1 <0>         0.0617
     35 H16         1.5194   -3.6204    2.6028 H         1 <0>         0.0639
     36 H17        -0.2836   -2.1651   -1.4948 H         1 <0>         0.4030
     37 H18        -3.1811   -2.0354   -1.9363 H         1 <0>         0.1778
     38 H19        -2.1211   -0.6125   -1.7949 H         1 <0>         0.1271
     39 H20        -2.4372   -1.1429   -4.1638 H         1 <0>         0.0894
     40 H21        -0.7545   -1.5009   -3.7068 H         1 <0>         0.0577
     41 H22        -2.2859   -2.7638   -5.9902 H         1 <0>         0.0645
     42 H23        -0.6033   -3.1218   -5.5332 H         1 <0>         0.0666
     43 H24        -1.5408   -5.0524   -6.7109 H         1 <0>         0.0644
     44 H25        -1.3002   -5.4757   -4.9989 H         1 <0>         0.0544
     45 H26        -3.4765   -6.0882   -5.7697 H         1 <0>         0.3837
     46 H27        -1.3462   -3.4242   -1.4760 H         1 <0>         0.4253
@<TRIPOS>BOND
     1    1    2 1
     2    1   21 1
     3    1   22 1
     4    1   23 1
     5    2    3 1
     6    2    8 1
     7    2    4 1
     8    4    5 1
     9    4   24 1
    10    4   25 1
    11    5    6 1
    12    5   11 1
    13    5   14 1
    14    6    7 1
    15    6   26 1
    16    6   27 1
    17    7    8 1
    18    7    9 1
    19    7   10 1
    20    8   28 1
    21    8   29 1
    22    9   30 1
    23    9   31 1
    24    9   32 1
    25   10   33 1
    26   10   34 1
    27   10   35 1
    28   11   12 2
    29   11   13 1
    30   14   15 1
    31   14   36 1
    32   14   46 1
    33   15   16 1
    34   15   37 1
    35   15   38 1
    36   16   17 1
    37   16   39 1
    38   16   40 1
    39   17   18 1
    40   18   19 1
    41   18   41 1
    42   18   42 1
    43   19   20 1
    44   19   43 1
    45   19   44 1
    46   20   45 1
@<TRIPOS>MOLECULE
ZINC63155025
   35    36     0     0     0
SMALL
USER_CHARGES

@<TRIPOS>ATOM
      1 C1         -0.0168    1.3842    0.0097 C.ar      1 <0>        -0.0281
      2 C2          1.1898    2.0609    0.0018 C.ar      1 <0>        -0.2121
      3 C3          2.3743    1.3317   -0.0135 C.ar      1 <0>         0.4699
      4 N1          2.3505    0.0077   -0.0203 N.ar      1 <0>        -0.5842
      5 C4          1.2148   -0.6639   -0.0131 C.ar      1 <0>         0.1947
      6 C5          0.0021   -0.0041    0.0020 C.ar      1 <0>        -0.3621
      7 C6         -1.2881   -0.7828    0.0107 C.3       1 <0>         0.0756
      8 N2         -1.7210   -1.0285   -1.3714 N.4       1 <0>        -0.6397
      9 N3          3.5937    1.9988   -0.0220 N.2       1 <0>        -1.0671
     10 S1          5.0083    1.1380   -0.0401 S.o2      1 <0>         2.5666
     11 O1          5.0167    0.4283    1.1909 O.2       1 <0>        -0.9892
     12 O2          4.9926    0.4407   -1.2782 O.2       1 <0>        -1.0122
     13 C7          6.3178    2.3933   -0.0466 C.3       1 <0>        -0.6122
     14 C8          7.6841    1.7049   -0.0633 C.3       1 <0>         0.0883
     15 H1          7.7779    1.0732   -0.9467 H         1 <0>         0.0827
     16 C9          8.8184    2.7600   -0.0338 C.3       1 <0>        -0.1433
     17 C10         9.9777    1.9295    0.5813 C.3       1 <0>        -0.1578
     18 C11         9.2300    0.9968    1.5582 C.3       1 <0>         0.0481
     19 O3          7.8639    0.9244    1.1291 O.3       1 <0>        -0.3705
     20 H2         -0.9522    1.9236    0.0259 H         1 <0>         0.1195
     21 H3          1.2118    3.1406    0.0070 H         1 <0>         0.1297
     22 H4          1.2341   -1.7437   -0.0191 H         1 <0>         0.1361
     23 H5         -1.1342   -1.7353    0.5179 H         1 <0>         0.1249
     24 H6         -2.0539   -0.2114    0.5352 H         1 <0>         0.1233
     25 H7         -1.8635   -0.1468   -1.8410 H         1 <0>         0.4286
     26 H8         -1.0121   -1.5574   -1.8570 H         1 <0>         0.4300
     27 H9          6.2159    3.0201   -0.9324 H         1 <0>         0.1330
     28 H10         6.2333    3.0111    0.8474 H         1 <0>         0.1294
     29 H11         9.0675    3.0972   -1.0400 H         1 <0>         0.0864
     30 H12         8.5553    3.6018    0.6067 H         1 <0>         0.0832
     31 H13        10.4926    1.3535   -0.1875 H         1 <0>         0.0786
     32 H14        10.6747    2.5739    1.1170 H         1 <0>         0.0845
     33 H15         9.6765    0.0027    1.5352 H         1 <0>         0.0711
     34 H16         9.2803    1.4027    2.5686 H         1 <0>         0.0720
     35 H17        -2.5848   -1.5499   -1.3657 H         1 <0>         0.4225
@<TRIPOS>BOND
     1    1    6 ar
     2    1    2 ar
     3    1   20 1
     4    2    3 ar
     5    2   21 1
     6    3    4 ar
     7    3    9 1
     8    4    5 ar
     9    5    6 ar
    10    5   22 1
    11    6    7 1
    12    7    8 1
    13    7   23 1
    14    7   24 1
    15    8   25 1
    16    8   26 1
    17    8   35 1
    18    9   10 1
    19   10   11 2
    20   10   12 2
    21   10   13 1
    22   13   14 1
    23   13   27 1
    24   13   28 1
    25   14   15 1
    26   14   19 1
    27   14   16 1
    28   16   17 1
    29   16   29 1
    30   16   30 1
    31   17   18 1
    32   17   31 1
    33   17   32 1
    34   18   19 1
    35   18   33 1
    36   18   34 1
@<TRIPOS>MOLECULE
ZINC33351162
   29    29     0     0     0
SMALL
USER_CHARGES
2-[[(3R,4S)-4-hydroxy-1,1-dioxo-thiolan-3-yl]amino]ethylcarbamodithioic acid
@<TRIPOS>ATOM
      1 C1         -4.4513   -4.7741   -1.4430 C.3       1 <0>        -0.6226
      2 C2         -3.9155   -4.7021    0.0142 C.3       1 <0>         0.0477
      3 H1         -4.5327   -4.0299    0.6284 H         1 <0>         0.1676
      4 C3         -3.8984   -6.0958    0.6403 C.3       1 <0>         0.1003
      5 H2         -4.0070   -5.9902    1.7298 H         1 <0>         0.1085
      6 C4         -5.0075   -7.0230    0.1060 C.3       1 <0>        -0.6183
      7 S1         -5.7998   -6.0142   -1.2149 S.o2      1 <0>         2.3926
      8 O1         -5.9175   -6.7980   -2.3943 O.2       1 <0>        -0.9041
      9 O2         -6.9479   -5.3671   -0.6834 O.2       1 <0>        -0.9042
     10 O3         -2.6304   -6.7002    0.3779 O.3       1 <0>        -0.6067
     11 N1         -2.5514   -4.1570    0.0041 N.4       1 <0>        -0.5141
     12 C5         -2.5713   -2.6882    0.0122 C.3       1 <0>        -0.0219
     13 C6         -1.1360   -2.1586    0.0013 C.3       1 <0>         0.0954
     14 N2         -1.1558   -0.6938    0.0094 N.pl3     1 <0>        -0.6893
     15 C7          0.0021   -0.0041    0.0020 C.2       1 <0>         0.4851
     16 S2          1.4961   -0.8398   -0.0167 S.2       1 <0>        -0.6965
     17 S3         -0.0218    1.7577    0.0117 S.3       1 <0>        -0.7372
     18 H3         -3.7217   -5.1558   -2.1724 H         1 <0>         0.1685
     19 H4         -4.8795   -3.8305   -1.8122 H         1 <0>         0.1695
     20 H5         -4.5564   -7.9474   -0.2838 H         1 <0>         0.1650
     21 H6         -5.7033   -7.2701    0.9214 H         1 <0>         0.1614
     22 H7         -2.4171   -7.7138    0.7482 H         1 <0>         0.4561
     23 H8         -2.0100   -4.5073    0.8952 H         1 <0>         0.4599
     24 H9         -3.1033   -2.3238   -0.8789 H         1 <0>         0.1339
     25 H10        -3.0862   -2.3334    0.9172 H         1 <0>         0.1346
     26 H11        -0.6040   -2.5230    0.8924 H         1 <0>         0.0938
     27 H12        -0.6211   -2.5133   -0.9037 H         1 <0>         0.0938
     28 H13        -2.1157   -0.1568    0.0215 H         1 <0>         0.4207
     29 H14        -2.0271   -4.4976   -0.9009 H         1 <0>         0.4602
@<TRIPOS>BOND
     1    1    7 1
     2    1    2 1
     3    1   18 1
     4    1   19 1
     5    2    3 1
     6    2    4 1
     7    2   11 1
     8    4    5 1
     9    4    6 1
    10    4   10 1
    11    6    7 1
    12    6   20 1
    13    6   21 1
    14    7    8 2
    15    7    9 2
    16   10   22 1
    17   11   12 1
    18   11   23 1
    19   11   29 1
    20   12   13 1
    21   12   24 1
    22   12   25 1
    23   13   14 1
    24   13   26 1
    25   13   27 1
    26   14   15 1
    27   14   28 1
    28   15   16 2
    29   15   17 1
@<TRIPOS>MOLECULE
ZINC40308585
   34    35     0     0     0
SMALL
USER_CHARGES

@<TRIPOS>ATOM
      1 C1         -0.0167    1.3775    0.0096 C.ar      1 <0>        -0.0328
      2 C2          1.1687    2.0872    0.0021 C.ar      1 <0>        -0.2336
      3 C3          2.3831    1.4125   -0.0135 C.ar      1 <0>         0.2502
      4 C4          2.4036    0.0243   -0.0211 C.ar      1 <0>        -0.2340
      5 C5          1.2124   -0.6837   -0.0131 C.ar      1 <0>         0.1769
      6 C6          0.0021   -0.0041    0.0020 C.ar      1 <0>        -0.2635
      7 O1          1.2291   -2.0425   -0.0210 O.3       1 <0>        -0.3184
      8 C7         -0.0361   -2.7069   -0.0119 C.3       1 <0>         0.0758
      9 C8          0.1829   -4.2211   -0.0227 C.3       1 <0>        -0.1398
     10 C9         -1.1512   -4.9217   -0.0132 C.2       1 <0>         0.5256
     11 O2         -2.1764   -4.2738    0.0008 O.2       1 <0>        -0.5339
     12 N1         -1.2053   -6.2684   -0.0203 N.am      1 <0>        -0.7228
     13 C10        -2.5023   -6.9495   -0.0110 C.3       1 <0>         0.2175
     14 C11        -2.2865   -8.4409   -0.0216 C.2       1 <0>         0.2068
     15 N2         -2.1647   -9.2133    1.0572 N.2       1 <0>        -0.5322
     16 H1         -1.8846  -11.2940   -1.2033 H         1 <0>         0.4460
     17 C12        -1.9880  -10.4578    0.6944 C.2       1 <0>         0.2674
     18 N3         -1.9936  -10.5055   -0.6491 N.pl3     1 <0>        -0.4788
     19 N4         -2.1942   -9.1874   -1.0907 N.2       1 <0>        -0.2937
     20 N5          3.5815    2.1297   -0.0220 N.pl3     1 <0>        -0.8747
     21 H2         -0.9597    1.9036    0.0259 H         1 <0>         0.1248
     22 H3          1.1513    3.1670    0.0080 H         1 <0>         0.1206
     23 H4          3.3462   -0.5028   -0.0336 H         1 <0>         0.1270
     24 H5         -0.9262   -0.5560    0.0082 H         1 <0>         0.1273
     25 H6         -0.5876   -2.4259    0.8853 H         1 <0>         0.0740
     26 H7         -0.6056   -2.4159   -0.8946 H         1 <0>         0.0736
     27 H8          0.7345   -4.5020   -0.9199 H         1 <0>         0.1075
     28 H9          0.7525   -4.5121    0.8599 H         1 <0>         0.1082
     29 H10        -0.3854   -6.7866   -0.0315 H         1 <0>         0.4051
     30 H11        -3.0538   -6.6685    0.8862 H         1 <0>         0.1008
     31 H12        -3.0718   -6.6585   -0.8937 H         1 <0>         0.0957
     32 H13        -1.8596  -11.2999    1.3583 H         1 <0>         0.2278
     33 H14         3.5663    3.0995   -0.0170 H         1 <0>         0.4005
     34 H15         4.4290    1.6579   -0.0330 H         1 <0>         0.3992
@<TRIPOS>BOND
     1    1    6 ar
     2    1    2 ar
     3    1   21 1
     4    2    3 ar
     5    2   22 1
     6    3    4 ar
     7    3   20 1
     8    4    5 ar
     9    4   23 1
    10    5    6 ar
    11    5    7 1
    12    6   24 1
    13    7    8 1
    14    8    9 1
    15    8   25 1
    16    8   26 1
    17    9   10 1
    18    9   27 1
    19    9   28 1
    20   10   11 2
    21   10   12 am
    22   12   13 1
    23   12   29 1
    24   13   30 1
    25   13   31 1
    26   13   14 1
    27   14   15 1
    28   14   19 2
    29   15   17 2
    30   16   18 1
    31   17   32 1
    32   17   18 1
    33   18   19 1
    34   20   33 1
    35   20   34 1
@<TRIPOS>MOLECULE
ZINC44218187
   29    30     0     0     0
SMALL
USER_CHARGES

@<TRIPOS>ATOM
      1 C1         -0.0167    1.3837    0.0096 C.ar      1 <0>        -0.0415
      2 C2          1.1587    2.1025    0.0023 C.ar      1 <0>        -0.1157
      3 C3          2.3778    1.4330   -0.0130 C.ar      1 <0>         0.1410
      4 C4          2.3914    0.0261   -0.0207 C.ar      1 <0>        -0.0960
      5 C5          1.1885   -0.6822   -0.0130 C.ar      1 <0>         0.0053
      6 C6          0.0021   -0.0041    0.0020 C.ar      1 <0>        -0.0612
      7 N1         -1.2731   -0.7557    0.0107 N.pl3     1 <0>         0.0338
      8 O1         -2.3254   -0.1606    0.0243 O.2       1 <0>        -0.1546
      9 O2         -1.2622   -1.9646    0.0041 O.3       1 <0>        -0.1540
     10 C7          3.8031   -0.3649   -0.0368 C.2       1 <0>        -0.1930
     11 C8          4.5239    0.7676   -0.0378 C.2       1 <0>         0.0663
     12 N2          3.6894    1.8519   -0.0237 N.pl3     1 <0>        -0.5736
     13 H1          3.9787    2.7777   -0.0216 H         1 <0>         0.4308
     14 C9          4.3436   -1.7715   -0.0493 C.3       1 <0>         0.1370
     15 H2          3.6941   -2.4156    0.5435 H         1 <0>         0.1480
     16 C10         4.3948   -2.2854   -1.4895 C.3       1 <0>        -0.2089
     17 C11         4.8183   -3.7317   -1.4920 C.2       1 <0>         0.4841
     18 O3          5.0571   -4.2988   -0.4394 O.co2     1 <0>        -0.7006
     19 O4          4.9222   -4.3346   -2.5466 O.co2     1 <0>        -0.6531
     20 N3          5.6967   -1.7812    0.5225 N.4       1 <0>        -0.6255
     21 H3         -0.9622    1.9054    0.0260 H         1 <0>         0.1612
     22 H4          1.1336    3.1822    0.0080 H         1 <0>         0.1499
     23 H5          1.1954   -1.7621   -0.0193 H         1 <0>         0.1599
     24 H6          5.6028    0.8157   -0.0482 H         1 <0>         0.1793
     25 H7          3.4077   -2.1951   -1.9428 H         1 <0>         0.1063
     26 H8          5.1121   -1.6958   -2.0603 H         1 <0>         0.0845
     27 H9          5.6630   -1.4423    1.4723 H         1 <0>         0.4231
     28 H10         6.0586   -2.7231    0.5142 H         1 <0>         0.4499
     29 H11         6.2980   -1.1850   -0.0262 H         1 <0>         0.4170
@<TRIPOS>BOND
     1    1    6 ar
     2    1    2 ar
     3    1   21 1
     4    2    3 ar
     5    2   22 1
     6    3   12 1
     7    3    4 ar
     8    4    5 ar
     9    4   10 1
    10    5    6 ar
    11    5   23 1
    12    6    7 1
    13    7    8 2
    14    7    9 1
    15   10   11 2
    16   10   14 1
    17   11   12 1
    18   11   24 1
    19   12   13 1
    20   14   15 1
    21   14   16 1
    22   14   20 1
    23   16   17 1
    24   16   25 1
    25   16   26 1
    26   17   18 2
    27   17   19 1
    28   20   27 1
    29   20   28 1
    30   20   29 1
@<TRIPOS>MOLECULE
ZINC51095090
   36    36     0     0     0
SMALL
USER_CHARGES

@<TRIPOS>ATOM
      1 C1         -0.0173    1.4248    0.0099 C.3       1 <0>         0.0308
      2 O1          0.0021   -0.0041    0.0020 O.3       1 <0>        -0.3839
      3 C2          0.6518   -0.5703   -1.1379 C.3       1 <0>         0.0623
      4 C3          0.6131   -2.0967   -1.0411 C.3       1 <0>         0.0635
      5 O2         -0.7418   -2.5446   -1.1169 O.3       1 <0>        -0.3769
      6 C4         -0.8903   -3.9635   -1.0357 C.3       1 <0>         0.0488
      7 C5         -2.3736   -4.3271   -1.1270 C.3       1 <0>         0.1205
      8 N1         -2.8862   -3.9589   -2.4491 N.am      1 <0>        -0.7038
      9 C6         -4.1778   -4.1874   -2.7587 C.2       1 <0>         0.5717
     10 O3         -4.9173   -4.6990   -1.9413 O.2       1 <0>        -0.5326
     11 C7         -4.6961   -3.8150   -4.0957 C.ar      1 <0>         0.1266
     12 C8         -6.0321   -4.0488   -4.4063 C.ar      1 <0>        -0.1687
     13 C9         -6.5077   -3.6963   -5.6617 C.ar      1 <0>        -0.0373
     14 C10        -5.6311   -3.1218   -6.5639 C.ar      1 <0>        -0.2116
     15 C11        -4.3040   -2.9150   -6.1887 C.ar      1 <0>         0.4073
     16 N2         -3.8822   -3.2562   -4.9845 N.ar      1 <0>        -0.5061
     17 N3         -3.4169   -2.3382   -7.0898 N.pl3     1 <0>        -0.5751
     18 N4         -2.1154   -2.1322   -6.7301 N.3       1 <0>        -0.5969
     19 H1          1.0053    1.8021    0.0021 H         1 <0>         0.0407
     20 H2         -0.5445    1.7859   -0.8732 H         1 <0>         0.0412
     21 H3         -0.5275    1.7763    0.9067 H         1 <0>         0.0870
     22 H4          0.1385   -0.2506   -2.0447 H         1 <0>         0.0578
     23 H5          1.6883   -0.2344   -1.1694 H         1 <0>         0.0645
     24 H6          1.1847   -2.5275   -1.8631 H         1 <0>         0.0664
     25 H7          1.0473   -2.4117   -0.0922 H         1 <0>         0.0595
     26 H8         -0.3498   -4.4331   -1.8576 H         1 <0>         0.0584
     27 H9         -0.4873   -4.3173   -0.0867 H         1 <0>         0.0694
     28 H10        -2.4948   -5.3999   -0.9762 H         1 <0>         0.0864
     29 H11        -2.9280   -3.7875   -0.3592 H         1 <0>         0.0804
     30 H12        -2.2959   -3.5506   -3.1016 H         1 <0>         0.4150
     31 H13        -6.6912   -4.4997   -3.6792 H         1 <0>         0.1463
     32 H14        -7.5402   -3.8672   -5.9283 H         1 <0>         0.1438
     33 H15        -5.9706   -2.8367   -7.5488 H         1 <0>         0.1365
     34 H16        -3.7220   -2.0819   -7.9742 H         1 <0>         0.4122
     35 H17        -1.5948   -1.7083   -7.4833 H         1 <0>         0.3543
     36 H18        -2.0560   -1.5749   -5.8910 H         1 <0>         0.3419
@<TRIPOS>BOND
     1    1    2 1
     2    1   19 1
     3    1   20 1
     4    1   21 1
     5    2    3 1
     6    3    4 1
     7    3   22 1
     8    3   23 1
     9    4    5 1
    10    4   24 1
    11    4   25 1
    12    5    6 1
    13    6    7 1
    14    6   26 1
    15    6   27 1
    16    7    8 1
    17    7   28 1
    18    7   29 1
    19    8    9 am
    20    8   30 1
    21    9   10 2
    22    9   11 1
    23   11   16 ar
    24   11   12 ar
    25   12   13 ar
    26   12   31 1
    27   13   14 ar
    28   13   32 1
    29   14   15 ar
    30   14   33 1
    31   15   16 ar
    32   15   17 1
    33   17   18 1
    34   17   34 1
    35   18   35 1
    36   18   36 1
@<TRIPOS>MOLECULE
ZINC62858661
   40    40     0     0     0
SMALL
USER_CHARGES

@<TRIPOS>ATOM
      1 C1          0.6984   -0.5481    1.3371 C.3       1 <0>        -0.1670
      2 C2          0.0304   -0.0482    0.0546 C.3       1 <0>        -0.1131
      3 C3         -1.3808   -0.6306   -0.0458 C.3       1 <0>        -0.0981
      4 C4         -2.0304   -0.1744   -1.3555 C.3       1 <0>        -0.1293
      5 C5         -3.4107   -0.8253   -1.4830 C.3       1 <0>        -0.1525
      6 C6         -3.2602   -2.3463   -1.4093 C.3       1 <0>        -0.0083
      7 N1         -2.6581   -2.7203   -0.1240 N.4       1 <0>        -0.5062
      8 C7         -1.3056   -2.1588   -0.0253 C.3       1 <0>         0.0142
      9 C8         -2.2069   -0.1518    1.1201 C.2       1 <0>         0.5178
     10 O1         -2.5762   -0.9391    1.9656 O.2       1 <0>        -0.5570
     11 N2         -2.5354    1.1512    1.2234 N.am      1 <0>        -0.6885
     12 C9         -3.4185    1.6008    2.3023 C.3       1 <0>         0.0930
     13 C10        -3.6267    3.0894    2.1938 C.2       1 <0>         0.4927
     14 O2         -3.0901    3.7133    1.3029 O.2       1 <0>        -0.5601
     15 N3         -4.4090    3.7273    3.0868 N.am      1 <0>        -0.6826
     16 C11        -4.6114    5.1745    2.9812 C.3       1 <0>         0.0476
     17 C12        -5.5198    5.6369    4.0912 C.2       1 <0>         0.4887
     18 O3         -5.9576    4.8323    4.8958 O.co2     1 <0>        -0.6906
     19 O4         -5.8169    6.8157    4.1845 O.co2     1 <0>        -0.6794
     20 H1          1.7204   -0.1720    1.3848 H         1 <0>         0.0742
     21 H2          0.1389   -0.1905    2.2014 H         1 <0>         0.0625
     22 H3          0.7120   -1.6380    1.3386 H         1 <0>         0.0588
     23 H4         -0.0263    1.0402    0.0749 H         1 <0>         0.0902
     24 H5          0.6166   -0.3654   -0.8079 H         1 <0>         0.0905
     25 H6         -2.1379    0.9102   -1.3506 H         1 <0>         0.1015
     26 H7         -1.4060   -0.4762   -2.1964 H         1 <0>         0.0989
     27 H8         -4.0510   -0.4831   -0.6700 H         1 <0>         0.0872
     28 H9         -3.8562   -0.5495   -2.4388 H         1 <0>         0.1197
     29 H10        -4.2411   -2.8128   -1.5000 H         1 <0>         0.1335
     30 H11        -2.6200   -2.6874   -2.2229 H         1 <0>         0.1316
     31 H12        -3.2258   -2.3617    0.6292 H         1 <0>         0.4341
     32 H13        -0.7070   -2.5039   -0.8684 H         1 <0>         0.1394
     33 H14        -0.8434   -2.4869    0.9057 H         1 <0>         0.1422
     34 H15        -2.1871    1.7914    0.5832 H         1 <0>         0.4181
     35 H16        -4.3794    1.0927    2.2209 H         1 <0>         0.1044
     36 H17        -2.9642    1.3667    3.2651 H         1 <0>         0.1074
     37 H18        -4.8381    3.2283    3.7993 H         1 <0>         0.4124
     38 H19        -3.6505    5.6826    3.0627 H         1 <0>         0.0713
     39 H20        -5.0657    5.4085    2.0185 H         1 <0>         0.0709
     40 H21        -2.6095   -3.7258   -0.0564 H         1 <0>         0.4301
@<TRIPOS>BOND
     1    1    2 1
     2    1   20 1
     3    1   21 1
     4    1   22 1
     5    2    3 1
     6    2   23 1
     7    2   24 1
     8    3    8 1
     9    3    4 1
    10    3    9 1
    11    4    5 1
    12    4   25 1
    13    4   26 1
    14    5    6 1
    15    5   27 1
    16    5   28 1
    17    6    7 1
    18    6   29 1
    19    6   30 1
    20    7    8 1
    21    7   31 1
    22    7   40 1
    23    8   32 1
    24    8   33 1
    25    9   10 2
    26    9   11 am
    27   11   12 1
    28   11   34 1
    29   12   13 1
    30   12   35 1
    31   12   36 1
    32   13   14 2
    33   13   15 am
    34   15   16 1
    35   15   37 1
    36   16   17 1
    37   16   38 1
    38   16   39 1
    39   17   18 2
    40   17   19 1
@<TRIPOS>MOLECULE
ZINC35366823
   37    38     0     0     0
SMALL
USER_CHARGES

@<TRIPOS>ATOM
      1 C1         -0.0630    1.5159   -0.0089 C.3       1 <0>        -0.0943
      2 C2         -0.1142    0.0098   -0.0122 C.2       1 <0>         0.1541
      3 C3         -0.1005   -0.7127   -1.1849 C.2       1 <0>        -0.2768
      4 S1         -0.1783   -2.3776   -0.5434 S.3       1 <0>         0.1390
      5 C4         -0.2188   -1.9925    1.0945 C.2       1 <0>         0.0384
      6 N1         -0.1686   -0.6798    1.1002 N.2       1 <0>        -0.5180
      7 C5         -0.0394   -0.2449   -2.5738 C.2       1 <0>         0.6229
      8 O1         -0.1192    0.9443   -2.8193 O.2       1 <0>        -0.5038
      9 N2          0.1051   -1.1321   -3.5780 N.am      1 <0>        -0.5858
     10 C6          0.2426   -0.6603   -4.9581 C.3       1 <0>         0.1707
     11 C7          1.7042   -0.5574   -5.3105 C.ar      1 <0>        -0.1829
     12 C8          2.6635   -0.9848   -4.4133 C.ar      1 <0>        -0.0652
     13 C9          4.0047   -0.8902   -4.7356 C.ar      1 <0>        -0.1753
     14 C10         4.3905   -0.3681   -5.9569 C.ar      1 <0>        -0.0711
     15 C11         3.4367    0.0606   -6.8586 C.ar      1 <0>        -0.1938
     16 C12         2.0880   -0.0379   -6.5401 C.ar      1 <0>         0.2266
     17 N3          1.1204    0.3900   -7.4520 N.pl3     1 <0>        -0.8772
     18 C13         0.1246   -2.5683   -3.2894 C.3       1 <0>         0.0767
     19 C14        -1.2894   -3.0778   -3.1795 C.2       1 <0>         0.4950
     20 O2         -2.2216   -2.3163   -3.3276 O.2       1 <0>        -0.5202
     21 N4         -1.5180   -4.3798   -2.9166 N.am      1 <0>        -0.8494
     22 H1          0.9760    1.8440    0.0208 H         1 <0>         0.0830
     23 H2         -0.5388    1.8976   -0.9123 H         1 <0>         0.0981
     24 H3         -0.5891    1.8954    0.8670 H         1 <0>         0.0779
     25 H4         -0.2693   -2.6640    1.9389 H         1 <0>         0.2229
     26 H5         -0.2452   -1.3638   -5.6328 H         1 <0>         0.0868
     27 H6         -0.2245    0.3197   -5.0553 H         1 <0>         0.1005
     28 H7          2.3656   -1.3930   -3.4588 H         1 <0>         0.1146
     29 H8          4.7528   -1.2245   -4.0320 H         1 <0>         0.1181
     30 H9          5.4390   -0.2953   -6.2054 H         1 <0>         0.1212
     31 H10         3.7387    0.4685   -7.8119 H         1 <0>         0.1214
     32 H11         0.1837    0.3927   -7.1997 H         1 <0>         0.3980
     33 H12         1.3850    0.6844   -8.3375 H         1 <0>         0.4000
     34 H13         0.6386   -3.0936   -4.0943 H         1 <0>         0.1289
     35 H14         0.6478   -2.7429   -2.3493 H         1 <0>         0.1088
     36 H15        -0.7724   -4.9888   -2.7981 H         1 <0>         0.4033
     37 H16        -2.4281   -4.7078   -2.8458 H         1 <0>         0.4070
@<TRIPOS>BOND
     1    1    2 1
     2    1   22 1
     3    1   23 1
     4    1   24 1
     5    2    6 1
     6    2    3 2
     7    3    4 1
     8    3    7 1
     9    4    5 1
    10    5    6 2
    11    5   25 1
    12    7    8 2
    13    7    9 am
    14    9   10 1
    15    9   18 1
    16   10   11 1
    17   10   26 1
    18   10   27 1
    19   11   16 ar
    20   11   12 ar
    21   12   13 ar
    22   12   28 1
    23   13   14 ar
    24   13   29 1
    25   14   15 ar
    26   14   30 1
    27   15   16 ar
    28   15   31 1
    29   16   17 1
    30   17   32 1
    31   17   33 1
    32   18   19 1
    33   18   34 1
    34   18   35 1
    35   19   20 2
    36   19   21 am
    37   21   36 1
    38   21   37 1
@<TRIPOS>MOLECULE
ZINC40331781
   38    38     0     0     0
SMALL
USER_CHARGES

@<TRIPOS>ATOM
      1 C1          0.8215    0.5467   -0.2000 C.3       1 <0>        -0.1482
      2 C2          0.2926   -0.8886   -0.1680 C.3       1 <0>        -0.0988
      3 H1         -0.7963   -0.8757   -0.2138 H         1 <0>         0.1134
      4 C3          0.8443   -1.6623   -1.3672 C.3       1 <0>         0.1316
      5 N1          0.3186   -1.0831   -2.6058 N.am      1 <0>        -0.6122
      6 C4          1.0480   -0.0047   -3.2775 C.3       1 <0>         0.0721
      7 C5         -0.8362   -1.5423   -3.1274 C.2       1 <0>         0.5748
      8 O1         -1.4912   -2.3689   -2.5212 O.2       1 <0>        -0.5438
      9 C6         -1.3046   -1.0439   -4.4300 C.ar      1 <0>        -0.2794
     10 C7         -0.4139   -0.9404   -5.5041 C.ar      1 <0>         0.0080
     11 C8         -0.8486   -0.4786   -6.7122 C.ar      1 <0>        -0.2556
     12 C9         -2.1808   -0.1059   -6.8873 C.ar      1 <0>         0.2850
     13 C10        -3.0787   -0.2018   -5.8328 C.ar      1 <0>        -0.2920
     14 C11        -2.6502   -0.6751   -4.6021 C.ar      1 <0>         0.3159
     15 N2         -3.5439   -0.7790   -3.5438 N.pl3     1 <0>        -0.8589
     16 N3         -2.6118    0.3643   -8.1232 N.pl3     1 <0>        -0.8677
     17 C12         0.7339   -1.5582    1.1079 C.2       1 <0>         0.4688
     18 O2          1.4193   -2.5522    1.0628 O.2       1 <0>        -0.5032
     19 O3          0.3654   -1.0503    2.2945 O.3       1 <0>        -0.3523
     20 C13         0.8196   -1.7362    3.4630 C.3       1 <0>         0.0322
     21 H2          1.9105    0.5338   -0.1543 H         1 <0>         0.0627
     22 H3          0.5024    1.0310   -1.1229 H         1 <0>         0.0760
     23 H4          0.4285    1.0979    0.6542 H         1 <0>         0.0715
     24 H5          1.9325   -1.6001   -1.3702 H         1 <0>         0.0882
     25 H6          0.5403   -2.7067   -1.2968 H         1 <0>         0.0952
     26 H7          1.6813   -0.4258   -4.0583 H         1 <0>         0.0598
     27 H8          0.3378    0.6923   -3.7224 H         1 <0>         0.0778
     28 H9          1.6677    0.5218   -2.5517 H         1 <0>         0.0761
     29 H10         0.6197   -1.2263   -5.3766 H         1 <0>         0.1260
     30 H11        -0.1566   -0.4009   -7.5377 H         1 <0>         0.1217
     31 H12        -4.1098    0.0877   -5.9720 H         1 <0>         0.1232
     32 H13        -3.2228   -1.0135   -2.6591 H         1 <0>         0.4058
     33 H14        -4.4891   -0.6169   -3.6896 H         1 <0>         0.3994
     34 H15        -1.9860    0.4324   -8.8613 H         1 <0>         0.4013
     35 H16        -3.5381    0.6240   -8.2472 H         1 <0>         0.4000
     36 H17         0.4437   -2.7593    3.4529 H         1 <0>         0.0616
     37 H18         1.9094   -1.7497    3.4758 H         1 <0>         0.0613
     38 H19         0.4521   -1.2229    4.3515 H         1 <0>         0.1031
@<TRIPOS>BOND
     1    1    2 1
     2    1   21 1
     3    1   22 1
     4    1   23 1
     5    2    3 1
     6    2    4 1
     7    2   17 1
     8    4    5 1
     9    4   24 1
    10    4   25 1
    11    5    6 1
    12    5    7 am
    13    6   26 1
    14    6   27 1
    15    6   28 1
    16    7    8 2
    17    7    9 1
    18    9   14 ar
    19    9   10 ar
    20   10   11 ar
    21   10   29 1
    22   11   12 ar
    23   11   30 1
    24   12   13 ar
    25   12   16 1
    26   13   14 ar
    27   13   31 1
    28   14   15 1
    29   15   32 1
    30   15   33 1
    31   16   34 1
    32   16   35 1
    33   17   18 2
    34   17   19 1
    35   19   20 1
    36   20   36 1
    37   20   37 1
    38   20   38 1
@<TRIPOS>MOLECULE
ZINC44902926
   40    42     0     0     0
SMALL
USER_CHARGES

@<TRIPOS>ATOM
      1 C1         -0.4423    1.6538   -0.3842 C.ar      1 <0>        -0.1448
      2 C2          0.7403    2.3770   -0.3077 C.ar      1 <0>        -0.0983
      3 C3          1.9454    1.7356   -0.1239 C.ar      1 <0>        -0.1299
      4 C4          1.9805    0.3492   -0.0131 C.ar      1 <0>         0.0947
      5 C5          0.7794   -0.3789   -0.0909 C.ar      1 <0>        -0.1004
      6 C6         -0.4310    0.2917   -0.2780 C.ar      1 <0>        -0.0715
      7 C7          1.1500   -1.7882    0.0591 C.2       1 <0>        -0.1734
      8 C8          2.4831   -1.8294    0.2108 C.2       1 <0>         0.0632
      9 N1          2.9965   -0.5617    0.1704 N.pl3     1 <0>        -0.5944
     10 H1          3.9363   -0.3380    0.2582 H         1 <0>         0.4173
     11 C9          0.2123   -2.9679    0.0459 C.3       1 <0>        -0.0542
     12 C10        -0.0442   -3.3994   -1.3994 C.3       1 <0>         0.1222
     13 N2         -0.9557   -4.5463   -1.4121 N.am      1 <0>        -0.6990
     14 C11        -1.3258   -5.0999   -2.5839 C.2       1 <0>         0.5135
     15 O1         -0.9039   -4.6484   -3.6284 O.2       1 <0>        -0.5187
     16 C12        -2.2547   -6.2688   -2.5969 C.2       1 <0>         0.5155
     17 O2         -2.6767   -6.7205   -1.5520 O.2       1 <0>        -0.4938
     18 N3         -2.6248   -6.8224   -3.7686 N.am      1 <0>        -0.6335
     19 C13        -3.4112   -7.9815   -3.7781 C.2       1 <0>        -0.0281
     20 C14        -4.6173   -7.9891   -4.4005 C.2       1 <0>         0.1277
     21 N4         -5.3820   -9.1107   -4.4110 N.pl3     1 <0>        -0.5800
     22 C15        -4.9729  -10.2522   -3.8065 C.2       1 <0>         0.1329
     23 C16        -3.7821  -10.3107   -3.1694 C.2       1 <0>        -0.2761
     24 C17        -2.9546   -9.1658   -3.1419 C.2       1 <0>         0.3920
     25 O3         -1.8706   -9.1927   -2.5771 O.2       1 <0>        -0.5043
     26 H2         -1.3793    2.1723   -0.5244 H         1 <0>         0.1225
     27 H3          0.7151    3.4533   -0.3934 H         1 <0>         0.1253
     28 H4          2.8600    2.3071   -0.0664 H         1 <0>         0.1198
     29 H5         -1.3549   -0.2643   -0.3382 H         1 <0>         0.1207
     30 H6          3.0643   -2.7297    0.3447 H         1 <0>         0.1716
     31 H7          0.6604   -3.7943    0.5977 H         1 <0>         0.0800
     32 H8         -0.7311   -2.6874    0.5143 H         1 <0>         0.0798
     33 H9         -0.4922   -2.5731   -1.9512 H         1 <0>         0.0759
     34 H10         0.8993   -3.6799   -1.8677 H         1 <0>         0.0747
     35 H11        -1.2928   -4.9072   -0.5773 H         1 <0>         0.4140
     36 H12        -2.3466   -6.4182   -4.6054 H         1 <0>         0.4182
     37 H13        -4.9720   -7.0948   -4.8913 H         1 <0>         0.1694
     38 H14        -5.6064  -11.1264   -3.8338 H         1 <0>         0.1703
     39 H15        -3.4644  -11.2249   -2.6900 H         1 <0>         0.1527
     40 H16        -6.2409   -9.0944   -4.8613 H         1 <0>         0.4261
@<TRIPOS>BOND
     1    1    6 ar
     2    1    2 ar
     3    1   26 1
     4    2    3 ar
     5    2   27 1
     6    3    4 ar
     7    3   28 1
     8    4    9 1
     9    4    5 ar
    10    5    6 ar
    11    5    7 1
    12    6   29 1
    13    7    8 2
    14    7   11 1
    15    8    9 1
    16    8   30 1
    17    9   10 1
    18   11   12 1
    19   11   31 1
    20   11   32 1
    21   12   13 1
    22   12   33 1
    23   12   34 1
    24   13   14 am
    25   13   35 1
    26   14   15 2
    27   14   16 1
    28   16   17 2
    29   16   18 am
    30   18   36 1
    31   18   19 1
    32   19   24 1
    33   19   20 2
    34   20   37 1
    35   20   21 1
    36   21   40 1
    37   21   22 1
    38   22   38 1
    39   22   23 2
    40   23   24 1
    41   23   39 1
    42   24   25 2
@<TRIPOS>MOLECULE
ZINC54207757
   35    35     0     0     0
SMALL
USER_CHARGES

@<TRIPOS>ATOM
      1 C1          0.0594    1.5354    0.0277 C.3       1 <0>        -0.1650
      2 C2          0.1351    0.0074    0.0516 C.3       1 <0>         0.1016
      3 N1          0.6565   -0.4757   -1.2294 N.pl3     1 <0>        -0.7209
      4 C3          0.8156   -1.8399   -1.4451 C.ar      1 <0>         0.2517
      5 C4          1.6662   -2.2988   -2.4620 C.ar      1 <0>        -0.2075
      6 C5          1.8171   -3.6727   -2.6684 C.ar      1 <0>        -0.0449
      7 C6          1.1324   -4.5669   -1.8751 C.ar      1 <0>        -0.1621
      8 C7          0.2921   -4.1123   -0.8712 C.ar      1 <0>        -0.0740
      9 C8          0.1365   -2.7576   -0.6500 C.ar      1 <0>         0.0113
     10 F1         -0.6801   -2.3236    0.3349 F         1 <0>        -0.1351
     11 C9          2.3962   -1.3372   -3.3083 C.2       1 <0>         0.5740
     12 O1          2.3482   -0.1482   -3.0580 O.2       1 <0>        -0.5394
     13 N2          3.1167   -1.7760   -4.3594 N.am      1 <0>        -0.7207
     14 C10         3.8421   -0.8205   -5.2003 C.3       1 <0>         0.1329
     15 C11         4.5727   -1.5733   -6.3140 C.3       1 <0>        -0.6522
     16 S1          5.4708   -0.3902   -7.3553 S.o2      1 <0>         2.6286
     17 O2          4.5541    0.4223   -8.0755 O.2       1 <0>        -0.9534
     18 O3          6.5372    0.1962   -6.6217 O.2       1 <0>        -0.9506
     19 N3          6.2120   -1.3169   -8.5104 N.pl3     1 <0>        -1.2476
     20 H1          1.0556    1.9459   -0.1372 H         1 <0>         0.0628
     21 H2         -0.6027    1.8538   -0.7775 H         1 <0>         0.0615
     22 H3         -0.3285    1.8949    0.9808 H         1 <0>         0.0748
     23 H4          0.7972   -0.3110    0.8567 H         1 <0>         0.0611
     24 H5         -0.8611   -0.4031    0.2165 H         1 <0>         0.0784
     25 H6          0.8908    0.1561   -1.9271 H         1 <0>         0.4199
     26 H7          2.4700   -4.0332   -3.4495 H         1 <0>         0.1294
     27 H8          1.2509   -5.6282   -2.0367 H         1 <0>         0.1367
     28 H9         -0.2408   -4.8214   -0.2552 H         1 <0>         0.1402
     29 H10         3.1550   -2.7244   -4.5591 H         1 <0>         0.4049
     30 H11         3.1369   -0.1154   -5.6404 H         1 <0>         0.0888
     31 H12         4.5664   -0.2783   -4.5925 H         1 <0>         0.0887
     32 H13         5.2778   -2.2784   -5.8739 H         1 <0>         0.1423
     33 H14         3.8483   -2.1155   -6.9219 H         1 <0>         0.1449
     34 H15         6.3778   -0.9507   -9.3931 H         1 <0>         0.4240
     35 H16         6.4802   -2.2260   -8.3042 H         1 <0>         0.4146
@<TRIPOS>BOND
     1    1    2 1
     2    1   20 1
     3    1   21 1
     4    1   22 1
     5    2    3 1
     6    2   23 1
     7    2   24 1
     8    3    4 1
     9    3   25 1
    10    4    9 ar
    11    4    5 ar
    12    5    6 ar
    13    5   11 1
    14    6    7 ar
    15    6   26 1
    16    7    8 ar
    17    7   27 1
    18    8    9 ar
    19    8   28 1
    20    9   10 1
    21   11   12 2
    22   11   13 am
    23   13   14 1
    24   13   29 1
    25   14   15 1
    26   14   30 1
    27   14   31 1
    28   15   16 1
    29   15   32 1
    30   15   33 1
    31   16   17 2
    32   16   18 2
    33   16   19 1
    34   19   34 1
    35   19   35 1
@<TRIPOS>MOLECULE
ZINC64851923
   36    37     0     0     0
SMALL
USER_CHARGES

@<TRIPOS>ATOM
      1 C1         -0.2568    1.2918   -0.0069 C.ar      1 <0>        -0.1488
      2 C2          0.8068    1.9022   -0.6519 C.ar      1 <0>        -0.0646
      3 C3          2.0499    1.3026   -0.6702 C.ar      1 <0>        -0.1449
      4 C4          2.2421    0.0805   -0.0399 C.ar      1 <0>         0.2162
      5 C5          1.1677   -0.5399    0.6144 C.ar      1 <0>        -0.1863
      6 C6         -0.0846    0.0789    0.6240 C.ar      1 <0>        -0.0628
      7 C7          1.3587   -1.8387    1.2876 C.2       1 <0>         0.5731
      8 O1          2.4693   -2.3284    1.3597 O.2       1 <0>        -0.5511
      9 N1          0.3023   -2.4823    1.8225 N.am      1 <0>        -0.8457
     10 N2          3.4956   -0.5266   -0.0575 N.am      1 <0>        -0.6590
     11 C8          4.6055    0.2232   -0.2075 C.2       1 <0>         0.5206
     12 O2          4.5221    1.4329   -0.2253 O.2       1 <0>        -0.5125
     13 C9          5.9500   -0.4417   -0.3532 C.3       1 <0>        -0.1551
     14 C10         7.0336    0.6273   -0.5074 C.3       1 <0>         0.1539
     15 N3          8.3406   -0.0190   -0.6490 N.pl3     1 <0>        -0.7017
     16 C11         9.4804    0.7509   -0.8031 C.ar      1 <0>         0.5631
     17 N4          9.3721    2.0714   -0.8149 N.ar      1 <0>        -0.5657
     18 C12        10.4415    2.8362   -0.9598 C.ar      1 <0>         0.1923
     19 C13        11.6850    2.2403   -1.1002 C.ar      1 <0>        -0.2924
     20 C14        11.7623    0.8565   -1.0834 C.ar      1 <0>         0.1922
     21 N5         10.6545    0.1502   -0.9298 N.ar      1 <0>        -0.5724
     22 H1         -1.2245    1.7712    0.0053 H         1 <0>         0.1318
     23 H2          0.6622    2.8528   -1.1437 H         1 <0>         0.1333
     24 H3          2.8738    1.7843   -1.1757 H         1 <0>         0.1538
     25 H4         -0.9169   -0.3927    1.1254 H         1 <0>         0.1300
     26 H5         -0.5836   -2.0916    1.7649 H         1 <0>         0.4034
     27 H6          0.4280   -3.3362    2.2651 H         1 <0>         0.4078
     28 H7          3.5698   -1.4890    0.0382 H         1 <0>         0.4262
     29 H8          6.1560   -1.0428    0.5325 H         1 <0>         0.1081
     30 H9          5.9445   -1.0833   -1.2344 H         1 <0>         0.1074
     31 H10         6.8276    1.2283   -1.3931 H         1 <0>         0.0780
     32 H11         7.0391    1.2689    0.3738 H         1 <0>         0.0781
     33 H12         8.4073   -0.9867   -0.6348 H         1 <0>         0.4137
     34 H13        10.3469    3.9120   -0.9690 H         1 <0>         0.1676
     35 H14        12.5744    2.8411   -1.2204 H         1 <0>         0.1448
     36 H15        12.7159    0.3610   -1.1907 H         1 <0>         0.1677
@<TRIPOS>BOND
     1    1    6 ar
     2    1    2 ar
     3    1   22 1
     4    2    3 ar
     5    2   23 1
     6    3    4 ar
     7    3   24 1
     8    4    5 ar
     9    4   10 1
    10    5    6 ar
    11    5    7 1
    12    6   25 1
    13    7    8 2
    14    7    9 am
    15    9   26 1
    16    9   27 1
    17   10   11 am
    18   10   28 1
    19   11   12 2
    20   11   13 1
    21   13   14 1
    22   13   29 1
    23   13   30 1
    24   14   15 1
    25   14   31 1
    26   14   32 1
    27   15   16 1
    28   15   33 1
    29   16   21 ar
    30   16   17 ar
    31   17   18 ar
    32   18   19 ar
    33   18   34 1
    34   19   20 ar
    35   19   35 1
    36   20   21 ar
    37   20   36 1
@<TRIPOS>MOLECULE
ZINC22576983
   41    42     0     0     0
SMALL
USER_CHARGES
(2S)-2-[[4-amino-5-(2-methyl-3-furyl)-1,2,4-triazol-3-yl]sulfanyl]-N-carbamoyl-3-methyl-butanamide
@<TRIPOS>ATOM
      1 C1          6.5822    2.6308   -0.7911 C.3       1 <0>        -0.0961
      2 C2          5.9294    3.9615   -0.5188 C.2       1 <0>         0.0656
      3 C3          4.6020    4.1673   -0.3039 C.2       1 <0>        -0.1315
      4 C4          4.4541    5.6113   -0.0817 C.2       1 <0>        -0.2088
      5 C5          5.6881    6.1310   -0.1875 C.2       1 <0>        -0.0150
      6 O1          6.5580    5.1440   -0.4503 O.3       1 <0>        -0.1719
      7 C6          3.5309    3.1474   -0.2904 C.2       1 <0>         0.2443
      8 N1          3.6782    1.8587   -0.4909 N.2       1 <0>        -0.2666
      9 N2          2.5399    1.2683   -0.4079 N.2       1 <0>        -0.2739
     10 C7          1.5956    2.1432   -0.1495 C.2       1 <0>         0.1159
     11 N3          2.1918    3.3711   -0.0713 N.pl3     1 <0>        -0.2068
     12 N4          1.5846    4.5695    0.1760 N.3       1 <0>        -0.7638
     13 S1         -0.1209    1.7999    0.0516 S.3       1 <0>         0.0958
     14 C8         -0.1001   -0.0039   -0.0962 C.3       1 <0>        -0.1070
     15 H1          0.4176   -0.4651   -0.9502 H         1 <0>         0.1322
     16 C9          0.5625   -0.6096    1.1427 C.3       1 <0>        -0.0850
     17 C10        -0.2959   -0.3165    2.3749 C.3       1 <0>        -0.1607
     18 C11         0.6951   -2.1231    0.9618 C.3       1 <0>        -0.1591
     19 C12        -1.5132   -0.5149   -0.2106 C.2       1 <0>         0.5429
     20 O2         -2.4390    0.1746    0.1598 O.2       1 <0>        -0.4545
     21 N5         -1.7478   -1.7385   -0.7247 N.am      1 <0>        -0.6995
     22 C13        -3.0116   -2.1955   -0.8269 C.2       1 <0>         0.6993
     23 O3         -3.9397   -1.5042   -0.4556 O.2       1 <0>        -0.5407
     24 N6         -3.2462   -3.4191   -1.3410 N.am      1 <0>        -0.8814
     25 H2          5.8178    1.8398   -0.7875 H         1 <0>         0.1198
     26 H3          7.3291    2.4224   -0.0109 H         1 <0>         0.0852
     27 H4          7.0762    2.6589   -1.7735 H         1 <0>         0.0852
     28 H5          3.5391    6.1465    0.1253 H         1 <0>         0.1492
     29 H6          5.9397    7.1756   -0.0782 H         1 <0>         0.2119
     30 H7          0.4970    4.6125    0.3352 H         1 <0>         0.4471
     31 H8          2.1832    5.4915    0.2159 H         1 <0>         0.4429
     32 H9          1.5607   -0.1676    1.2776 H         1 <0>         0.1017
     33 H10         0.1805   -0.7520    3.2656 H         1 <0>         0.0641
     34 H11        -1.2941   -0.7584    2.2399 H         1 <0>         0.0564
     35 H12        -0.3911    0.7716    2.5050 H         1 <0>         0.0707
     36 H13         1.1715   -2.5585    1.8526 H         1 <0>         0.0714
     37 H14         1.3122   -2.3338    0.0759 H         1 <0>         0.0672
     38 H15        -0.3031   -2.5651    0.8268 H         1 <0>         0.0569
     39 H16        -0.9078   -2.3641   -1.0609 H         1 <0>         0.4343
     40 H17        -4.2777   -3.7921   -1.4244 H         1 <0>         0.4449
     41 H18        -2.4062   -4.0447   -1.6772 H         1 <0>         0.4174
@<TRIPOS>BOND
     1    1    2 1
     2    1   25 1
     3    1   26 1
     4    1   27 1
     5    2    6 1
     6    2    3 2
     7    3    4 1
     8    3    7 1
     9    4    5 2
    10    4   28 1
    11    5    6 1
    12    5   29 1
    13    7   11 1
    14    7    8 2
    15    8    9 1
    16    9   10 2
    17   10   11 1
    18   10   13 1
    19   11   12 1
    20   12   30 1
    21   12   31 1
    22   13   14 1
    23   14   15 1
    24   14   16 1
    25   14   19 1
    26   16   17 1
    27   16   18 1
    28   16   32 1
    29   17   33 1
    30   17   34 1
    31   17   35 1
    32   18   36 1
    33   18   37 1
    34   18   38 1
    35   19   20 2
    36   19   21 am
    37   21   22 am
    38   21   39 1
    39   22   23 2
    40   22   24 am
    41   24   40 1
    42   24   41 1
@<TRIPOS>MOLECULE
ZINC37658415
   32    32     0     0     0
SMALL
USER_CHARGES

@<TRIPOS>ATOM
      1 C1         -0.0168    1.3843    0.0097 C.ar      1 <0>        -0.1190
      2 C2          1.1707    2.0902    0.0021 C.ar      1 <0>        -0.1170
      3 C3          2.3788    1.4144   -0.0131 C.ar      1 <0>         0.1277
      4 C4          2.4000    0.0297   -0.0212 C.ar      1 <0>        -0.6612
      5 C5          1.2154   -0.6800   -0.0141 C.ar      1 <0>        -0.0759
      6 C6          0.0021   -0.0041    0.0020 C.ar      1 <0>         0.1936
      7 N1         -1.1985   -0.7206    0.0101 N.pl3     1 <0>        -0.8722
      8 S1          3.9395   -0.8271   -0.0410 S.o2      1 <0>         2.6977
      9 O1          4.7400   -0.2476    0.9801 O.2       1 <0>        -0.9429
     10 O2          3.6320   -2.2141   -0.0730 O.2       1 <0>        -0.9532
     11 N2          4.6785   -0.4728   -1.4801 N.pl3     1 <0>        -1.1126
     12 C7          5.1005    0.9001   -1.7683 C.3       1 <0>         0.1120
     13 C8          6.0666    0.8983   -2.9547 C.3       1 <0>        -0.1136
     14 C9          6.5073    2.3322   -3.2557 C.3       1 <0>        -0.1427
     15 C10         7.4589    2.3303   -4.4243 C.2       1 <0>         0.5160
     16 O3          7.7553    1.2851   -4.9634 O.2       1 <0>        -0.5426
     17 N3          7.9805    3.4903   -4.8705 N.am      1 <0>        -0.8579
     18 F1          3.5389    2.1068   -0.0204 F         1 <0>        -0.1275
     19 H1         -0.9590    1.9119    0.0260 H         1 <0>         0.1402
     20 H2          1.1565    3.1701    0.0077 H         1 <0>         0.1464
     21 H3          1.2323   -1.7599   -0.0212 H         1 <0>         0.1518
     22 H4         -2.0455   -0.2478    0.0210 H         1 <0>         0.4035
     23 H5         -1.1846   -1.6905    0.0048 H         1 <0>         0.4045
     24 H6          4.8319   -1.1744   -2.1321 H         1 <0>         0.4223
     25 H7          4.2272    1.5052   -2.0118 H         1 <0>         0.0682
     26 H8          5.5996    1.3179   -0.8940 H         1 <0>         0.0873
     27 H9          6.9399    0.2933   -2.7112 H         1 <0>         0.0823
     28 H10         5.5674    0.4805   -3.8290 H         1 <0>         0.0796
     29 H11         5.6340    2.9372   -3.4993 H         1 <0>         0.0991
     30 H12         7.0065    2.7500   -2.3814 H         1 <0>         0.1013
     31 H13         7.7434    4.3262   -4.4394 H         1 <0>         0.4025
     32 H14         8.5929    3.4891   -5.6226 H         1 <0>         0.4023
@<TRIPOS>BOND
     1    1    6 ar
     2    1    2 ar
     3    1   19 1
     4    2    3 ar
     5    2   20 1
     6    3    4 ar
     7    3   18 1
     8    4    5 ar
     9    4    8 1
    10    5    6 ar
    11    5   21 1
    12    6    7 1
    13    7   22 1
    14    7   23 1
    15    8    9 2
    16    8   10 2
    17    8   11 1
    18   11   12 1
    19   11   24 1
    20   12   13 1
    21   12   25 1
    22   12   26 1
    23   13   14 1
    24   13   27 1
    25   13   28 1
    26   14   15 1
    27   14   29 1
    28   14   30 1
    29   15   16 2
    30   15   17 am
    31   17   31 1
    32   17   32 1
@<TRIPOS>MOLECULE
ZINC42691433
   41    42     0     0     0
SMALL
USER_CHARGES

@<TRIPOS>ATOM
      1 C1          0.3703    0.8355   -1.5110 C.3       1 <0>        -0.1467
      2 C2          0.2278   -0.4621   -0.7130 C.3       1 <0>        -0.1147
      3 C3          1.3765   -0.5718    0.2917 C.3       1 <0>        -0.1480
      4 C4         -1.1062   -0.4562    0.0362 C.3       1 <0>         0.1479
      5 N1         -2.2082   -0.4356   -0.9289 N.pl3     1 <0>        -0.6385
      6 C5         -2.6764   -1.6855   -1.5329 C.3       1 <0>         0.1222
      7 C6         -3.6647   -2.3502   -0.6095 C.2       1 <0>         0.4907
      8 O1         -4.0157   -1.7904    0.4075 O.2       1 <0>        -0.5329
      9 N2         -4.1585   -3.5668   -0.9140 N.am      1 <0>        -0.8587
     10 C7         -2.8150    0.7808   -1.2747 C.ar      1 <0>         0.0919
     11 C8         -2.5516    1.3618   -2.5064 C.ar      1 <0>        -0.0783
     12 C9         -3.1528    2.5634   -2.8449 C.ar      1 <0>         0.0276
     13 C10        -4.0201    3.1883   -1.9509 C.ar      1 <0>         0.1283
     14 C11        -4.2836    2.6091   -0.7217 C.ar      1 <0>        -0.1929
     15 C12        -3.6871    1.4029   -0.3830 C.ar      1 <0>         0.2379
     16 N3         -3.9575    0.8123    0.8595 N.pl3     1 <0>        -0.8518
     17 O2         -4.6012    4.3693   -2.2978 O.3       1 <0>        -0.3034
     18 C13        -3.8336    5.2440   -3.1285 C.3       1 <0>         0.0520
     19 C14        -3.2325    4.4616   -4.2684 C.2       1 <0>         0.4889
     20 O3         -3.0498    4.9940   -5.3430 O.2       1 <0>        -0.5192
     21 N4         -2.8986    3.1652   -4.0882 N.am      1 <0>        -0.6541
     22 H1          1.3749    0.8961   -1.9298 H         1 <0>         0.0479
     23 H2         -0.3614    0.8475   -2.3188 H         1 <0>         0.0622
     24 H3          0.1991    1.6874   -0.8530 H         1 <0>         0.0507
     25 H4          0.2583   -1.3126   -1.3940 H         1 <0>         0.0679
     26 H5          1.3460    0.2788    0.9726 H         1 <0>         0.0548
     27 H6          1.2750   -1.4962    0.8602 H         1 <0>         0.0535
     28 H7          2.3269   -0.5760   -0.2421 H         1 <0>         0.0560
     29 H8         -1.1803   -1.3516    0.6532 H         1 <0>         0.0618
     30 H9         -1.1625    0.4281    0.6709 H         1 <0>         0.0692
     31 H10        -3.1583   -1.4701   -2.4865 H         1 <0>         0.0988
     32 H11        -1.8281   -2.3502   -1.6964 H         1 <0>         0.0942
     33 H12        -3.8777   -4.0145   -1.7274 H         1 <0>         0.4008
     34 H13        -4.7946   -3.9946   -0.3196 H         1 <0>         0.3998
     35 H14        -1.8792    0.8788   -3.1999 H         1 <0>         0.1341
     36 H15        -4.9560    3.0932   -0.0289 H         1 <0>         0.1369
     37 H16        -3.4867    0.0074    1.1267 H         1 <0>         0.4132
     38 H17        -4.6154    1.2086    1.4520 H         1 <0>         0.3930
     39 H18        -4.4798    6.0264   -3.5264 H         1 <0>         0.1444
     40 H19        -3.0364    5.6973   -2.5393 H         1 <0>         0.0994
     41 H20        -2.4893    2.6577   -4.8065 H         1 <0>         0.4128
@<TRIPOS>BOND
     1    1    2 1
     2    1   22 1
     3    1   23 1
     4    1   24 1
     5    2    3 1
     6    2    4 1
     7    2   25 1
     8    3   26 1
     9    3   27 1
    10    3   28 1
    11    4    5 1
    12    4   29 1
    13    4   30 1
    14    5    6 1
    15    5   10 1
    16    6    7 1
    17    6   31 1
    18    6   32 1
    19    7    8 2
    20    7    9 am
    21    9   33 1
    22    9   34 1
    23   10   15 ar
    24   10   11 ar
    25   11   12 ar
    26   11   35 1
    27   12   21 1
    28   12   13 ar
    29   13   14 ar
    30   13   17 1
    31   14   15 ar
    32   14   36 1
    33   15   16 1
    34   16   37 1
    35   16   38 1
    36   17   18 1
    37   18   19 1
    38   18   39 1
    39   18   40 1
    40   19   20 2
    41   19   21 am
    42   21   41 1
@<TRIPOS>MOLECULE
ZINC47871957
   32    32     0     0     0
SMALL
USER_CHARGES

@<TRIPOS>ATOM
      1 C1         -0.0167    1.3782    0.0096 C.ar      1 <0>        -0.0895
      2 C2          1.1706    2.0858    0.0021 C.ar      1 <0>        -0.1088
      3 C3          2.3780    1.4104   -0.0130 C.ar      1 <0>        -0.0302
      4 C4          2.3961    0.0270   -0.0206 C.ar      1 <0>        -0.1088
      5 C5          1.2082   -0.6795   -0.0130 C.ar      1 <0>        -0.0896
      6 C6          0.0021   -0.0041    0.0020 C.ar      1 <0>        -0.0700
      7 C7         -1.2928   -0.7750    0.0107 C.3       1 <0>        -0.0902
      8 C8         -1.7385   -1.0243   -1.4071 C.2       1 <0>         0.5157
      9 O1         -1.0704   -0.6162   -2.3335 O.2       1 <0>        -0.5227
     10 N1         -2.8795   -1.7008   -1.6458 N.am      1 <0>        -0.5245
     11 N2         -3.2938   -1.9326   -2.9639 N.am      1 <0>        -0.5172
     12 C9         -4.4348   -2.6091   -3.2025 C.2       1 <0>         0.5125
     13 O2         -5.1029   -3.0172   -2.2762 O.2       1 <0>        -0.5358
     14 C10        -4.8805   -2.8584   -4.6203 C.3       1 <0>         0.1304
     15 N3         -6.1393   -3.6078   -4.6119 N.am      1 <0>        -0.7360
     16 C11        -6.7298   -3.9463   -5.7752 C.2       1 <0>         0.7107
     17 O3         -6.2179   -3.6297   -6.8316 O.2       1 <0>        -0.5920
     18 N4         -7.8879   -4.6357   -5.7674 N.am      1 <0>        -0.8628
     19 Cl1         3.8696    2.2984   -0.0231 Cl        1 <0>        -0.0678
     20 H1         -0.9592    1.9053    0.0259 H         1 <0>         0.1316
     21 H2          1.1558    3.1656    0.0076 H         1 <0>         0.1354
     22 H3          3.3383   -0.5007   -0.0327 H         1 <0>         0.1353
     23 H4          1.2222   -1.7594   -0.0193 H         1 <0>         0.1316
     24 H5         -1.1447   -1.7283    0.5180 H         1 <0>         0.1143
     25 H6         -2.0551   -0.1989    0.5352 H         1 <0>         0.1143
     26 H7         -3.4138   -2.0272   -0.9049 H         1 <0>         0.4337
     27 H8         -2.7595   -1.6062   -3.7047 H         1 <0>         0.4370
     28 H9         -5.0286   -1.9051   -5.1276 H         1 <0>         0.1077
     29 H10        -4.1182   -3.4345   -5.1448 H         1 <0>         0.1077
     30 H11        -6.5477   -3.8604   -3.7691 H         1 <0>         0.4096
     31 H12        -8.2963   -4.8883   -4.9246 H         1 <0>         0.3996
     32 H13        -8.3129   -4.8793   -6.6046 H         1 <0>         0.4187
@<TRIPOS>BOND
     1    1    6 ar
     2    1    2 ar
     3    1   20 1
     4    2    3 ar
     5    2   21 1
     6    3    4 ar
     7    3   19 1
     8    4    5 ar
     9    4   22 1
    10    5    6 ar
    11    5   23 1
    12    6    7 1
    13    7    8 1
    14    7   24 1
    15    7   25 1
    16    8    9 2
    17    8   10 am
    18   10   11 1
    19   10   26 1
    20   11   12 am
    21   11   27 1
    22   12   13 2
    23   12   14 1
    24   14   15 1
    25   14   28 1
    26   14   29 1
    27   15   16 am
    28   15   30 1
    29   16   17 2
    30   16   18 am
    31   18   31 1
    32   18   32 1
@<TRIPOS>MOLECULE
ZINC64411352
   44    46     0     0     0
SMALL
USER_CHARGES

@<TRIPOS>ATOM
      1 C1         -0.0127    1.0858    0.0080 C.3       1 <0>        -0.1319
      2 C2         -0.7416    1.5850   -1.2129 C.2       1 <0>         0.2153
      3 N1         -0.0561    1.8245   -2.3727 N.am      1 <0>        -0.6320
      4 C3         -0.6975    2.2698   -3.4683 C.2       1 <0>         0.7017
      5 O1         -0.0690    2.4761   -4.4885 O.2       1 <0>        -0.5371
      6 N2         -2.0253    2.4898   -3.4512 N.am      1 <0>        -0.6572
      7 C4         -2.7368    2.2660   -2.3278 C.2       1 <0>         0.5624
      8 O2         -3.9381    2.4648   -2.3114 O.2       1 <0>        -0.5078
      9 C5         -2.0750    1.7928   -1.1691 C.2       1 <0>        -0.2512
     10 H1          0.9013    1.6720   -2.4052 H         1 <0>         0.4370
     11 C6         -2.8477    1.5293    0.0975 C.3       1 <0>        -0.0683
     12 C7         -2.9881    2.8118    0.8763 C.2       1 <0>         0.5192
     13 O3         -2.5080    3.8387    0.4452 O.2       1 <0>        -0.5222
     14 N3         -3.6472    2.8176    2.0519 N.am      1 <0>        -0.7340
     15 C8         -3.7838    4.0644    2.8090 C.3       1 <0>         0.0965
     16 C9         -4.5683    3.7968    4.0950 C.3       1 <0>         0.1916
     17 H2         -4.6845    4.7231    4.6577 H         1 <0>         0.1278
     18 N4         -3.8574    2.7933    4.9187 N.3       1 <0>        -0.6773
     19 C10        -4.9484    1.9716    5.5084 C.3       1 <0>         0.2413
     20 H3         -5.3741    2.4624    6.3835 H         1 <0>         0.1412
     21 N5         -5.9371    1.9173    4.3985 N.3       1 <0>        -0.4815
     22 O4         -5.8584    3.2543    3.7759 O.3       1 <0>        -0.2233
     23 C11        -4.4520    0.5924    5.8582 C.ar      1 <0>        -0.1186
     24 C12        -3.1318    0.4048    6.2225 C.ar      1 <0>        -0.0973
     25 C13        -2.6764   -0.8603    6.5435 C.ar      1 <0>        -0.1191
     26 C14        -3.5413   -1.9378    6.5005 C.ar      1 <0>        -0.1074
     27 C15        -4.8618   -1.7500    6.1370 C.ar      1 <0>        -0.1174
     28 C16        -5.3182   -0.4842    5.8203 C.ar      1 <0>        -0.1002
     29 H4          0.0021   -0.0041    0.0020 H         1 <0>         0.1022
     30 H5          1.0099    1.4631    0.0003 H         1 <0>         0.0893
     31 H6         -0.5229    1.4373    0.9048 H         1 <0>         0.0954
     32 H7         -2.4721    2.8110   -4.2500 H         1 <0>         0.4336
     33 H8         -3.8369    1.1464   -0.1533 H         1 <0>         0.1149
     34 H9         -2.3158    0.7940    0.7013 H         1 <0>         0.1088
     35 H10        -4.0312    1.9963    2.3967 H         1 <0>         0.3906
     36 H11        -2.7945    4.4473    3.0599 H         1 <0>         0.0917
     37 H12        -4.3156    4.7997    2.2053 H         1 <0>         0.0899
     38 H13        -3.2452    2.2273    4.3506 H         1 <0>         0.3468
     39 H14        -5.6982    1.1944    3.7365 H         1 <0>         0.3402
     40 H15        -2.4560    1.2466    6.2561 H         1 <0>         0.1327
     41 H16        -1.6448   -1.0070    6.8274 H         1 <0>         0.1273
     42 H17        -3.1854   -2.9263    6.7505 H         1 <0>         0.1261
     43 H18        -5.5375   -2.5919    6.1031 H         1 <0>         0.1282
     44 H19        -6.3507   -0.3369    5.5399 H         1 <0>         0.1320
@<TRIPOS>BOND
     1    1   29 1
     2    1   30 1
     3    1   31 1
     4    1    2 1
     5    2    9 2
     6    2    3 1
     7    3    4 am
     8    3   10 1
     9    4    5 2
    10    4    6 am
    11    6   32 1
    12    6    7 am
    13    7    8 2
    14    7    9 1
    15    9   11 1
    16   11   12 1
    17   11   33 1
    18   11   34 1
    19   12   13 2
    20   12   14 am
    21   14   15 1
    22   14   35 1
    23   15   16 1
    24   15   36 1
    25   15   37 1
    26   16   17 1
    27   16   22 1
    28   16   18 1
    29   18   19 1
    30   18   38 1
    31   19   20 1
    32   19   21 1
    33   19   23 1
    34   21   22 1
    35   21   39 1
    36   23   28 ar
    37   23   24 ar
    38   24   25 ar
    39   24   40 1
    40   25   26 ar
    41   25   41 1
    42   26   27 ar
    43   26   42 1
    44   27   28 ar
    45   27   43 1
    46   28   44 1
@<TRIPOS>MOLECULE
ZINC35428282
   32    33     0     0     0
SMALL
USER_CHARGES

@<TRIPOS>ATOM
      1 C1         -0.0028    1.4017    0.0173 C.ar      1 <0>        -0.0543
      2 C2          0.9411    1.6790   -0.9552 C.ar      1 <0>        -0.1645
      3 C3          2.1369    0.9871   -0.9809 C.ar      1 <0>        -0.0585
      4 C4          2.3940    0.0108   -0.0297 C.ar      1 <0>         0.0302
      5 C5          1.4427   -0.2688    0.9513 C.ar      1 <0>         0.2446
      6 C6          0.2445    0.4314    0.9693 C.ar      1 <0>        -0.1890
      7 N1          1.6949   -1.2508    1.9126 N.pl3     1 <0>        -0.8636
      8 N2          3.6060   -0.6930   -0.0545 N.pl3     1 <0>        -0.2222
      9 C7          4.8337   -0.1245   -0.1747 C.2       1 <0>        -0.0102
     10 C8          5.7416   -1.1286   -0.1579 C.2       1 <0>        -0.1719
     11 C9          4.9885   -2.3190   -0.0217 C.2       1 <0>        -0.0166
     12 N3          3.7180   -1.9695    0.0387 N.2       1 <0>        -0.2628
     13 C10         5.5243   -3.6930    0.0455 C.2       1 <0>         0.6051
     14 O1          6.7238   -3.8815   -0.0174 O.2       1 <0>        -0.5311
     15 N4          4.6839   -4.7384    0.1766 N.am      1 <0>        -0.7129
     16 C11         5.2156   -6.1019    0.2433 C.3       1 <0>         0.1184
     17 C12         4.0597   -7.0934    0.3906 C.3       1 <0>         0.0630
     18 O2          3.2507   -7.0603   -0.7869 O.3       1 <0>        -0.5709
     19 H1         -0.9340    1.9484    0.0352 H         1 <0>         0.1322
     20 H2          0.7426    2.4386   -1.6969 H         1 <0>         0.1331
     21 H3          2.8712    1.2062   -1.7420 H         1 <0>         0.1324
     22 H4         -0.4946    0.2178    1.7273 H         1 <0>         0.1329
     23 H5          2.5670   -1.6732    1.9571 H         1 <0>         0.4028
     24 H6          0.9980   -1.5102    2.5355 H         1 <0>         0.4030
     25 H7          5.0458    0.9304   -0.2668 H         1 <0>         0.1854
     26 H8          6.8153   -1.0399   -0.2327 H         1 <0>         0.1677
     27 H9          3.7269   -4.5881    0.2268 H         1 <0>         0.4093
     28 H10         5.7684   -6.3214   -0.6702 H         1 <0>         0.0788
     29 H11         5.8819   -6.1905    1.1013 H         1 <0>         0.0859
     30 H12         4.4585   -8.0983    0.5293 H         1 <0>         0.0664
     31 H13         3.4545   -6.8202    1.2550 H         1 <0>         0.0537
     32 H14         2.4970   -7.6657   -0.7634 H         1 <0>         0.3836
@<TRIPOS>BOND
     1    1    6 ar
     2    1    2 ar
     3    1   19 1
     4    2    3 ar
     5    2   20 1
     6    3    4 ar
     7    3   21 1
     8    4    5 ar
     9    4    8 1
    10    5    6 ar
    11    5    7 1
    12    6   22 1
    13    7   23 1
    14    7   24 1
    15    8   12 1
    16    8    9 1
    17    9   10 2
    18    9   25 1
    19   10   11 1
    20   10   26 1
    21   11   12 2
    22   11   13 1
    23   13   14 2
    24   13   15 am
    25   15   16 1
    26   15   27 1
    27   16   17 1
    28   16   28 1
    29   16   29 1
    30   17   18 1
    31   17   30 1
    32   17   31 1
    33   18   32 1
@<TRIPOS>MOLECULE
ZINC40330177
   40    41     0     0     0
SMALL
USER_CHARGES

@<TRIPOS>ATOM
      1 C1         -1.6936    0.8855   -0.3655 C.3       1 <0>        -0.0963
      2 C2         -0.7836   -0.3013   -0.1798 C.ar      1 <0>         0.1199
      3 C3         -0.0317   -0.7698   -1.2584 C.ar      1 <0>        -0.1309
      4 C4          0.8083   -1.8724   -1.0701 C.ar      1 <0>        -0.1264
      5 C5          0.8559   -2.4550    0.1916 C.ar      1 <0>         0.1574
      6 C6          0.0742   -1.9258    1.2117 C.ar      1 <0>         0.0542
      7 N1         -0.7027   -0.8814    0.9993 N.ar      1 <0>        -0.4438
      8 N2          1.6789   -3.5588    0.4308 N.pl3     1 <0>        -0.8686
      9 C7         -0.1220   -0.1114   -2.5792 C.2       1 <0>         0.5675
     10 O1         -0.0410    1.0986   -2.6619 O.2       1 <0>        -0.5234
     11 N3         -0.2942   -0.8529   -3.6914 N.am      1 <0>        -0.6056
     12 C8         -0.5255   -2.3008   -3.5975 C.3       1 <0>         0.1027
     13 C9         -1.8018   -2.6473   -4.3706 C.3       1 <0>        -0.1314
     14 C10        -1.6846   -2.1212   -5.8029 C.3       1 <0>        -0.0724
     15 C11        -1.5334   -0.5985   -5.7780 C.3       1 <0>        -0.1346
     16 C12        -0.2601   -0.2277   -5.0206 C.3       1 <0>         0.1132
     17 C13        -2.9432   -2.4957   -6.5881 C.3       1 <0>        -0.1398
     18 C14        -2.7767   -2.0864   -8.0289 C.2       1 <0>         0.5152
     19 O2         -1.7523   -1.5482   -8.3919 O.2       1 <0>        -0.5384
     20 N4         -3.7663   -2.3185   -8.9140 N.am      1 <0>        -0.8587
     21 H1         -1.1202    1.8050   -0.2477 H         1 <0>         0.0829
     22 H2         -2.1309    0.8555   -1.3635 H         1 <0>         0.0698
     23 H3         -2.4879    0.8546    0.3803 H         1 <0>         0.0748
     24 H4          1.4037   -2.2610   -1.8831 H         1 <0>         0.1379
     25 H5          0.1064   -2.3740    2.1938 H         1 <0>         0.1578
     26 H6          2.2217   -3.9233   -0.2857 H         1 <0>         0.4014
     27 H7          1.7074   -3.9603    1.3133 H         1 <0>         0.4039
     28 H8          0.3204   -2.8348   -4.0304 H         1 <0>         0.0712
     29 H9         -0.6432   -2.5849   -2.5517 H         1 <0>         0.0905
     30 H10        -1.9329   -3.7293   -4.3900 H         1 <0>         0.0783
     31 H11        -2.6597   -2.1852   -3.8823 H         1 <0>         0.0703
     32 H12        -0.8121   -2.5649   -6.2825 H         1 <0>         0.0826
     33 H13        -1.4734   -0.2221   -6.7992 H         1 <0>         0.0957
     34 H14        -2.3938   -0.1556   -5.2765 H         1 <0>         0.0623
     35 H15        -0.2027    0.8555   -4.9135 H         1 <0>         0.0948
     36 H16         0.6079   -0.5889   -5.5721 H         1 <0>         0.0706
     37 H17        -3.0992   -3.5730   -6.5321 H         1 <0>         0.0962
     38 H18        -3.8042   -1.9812   -6.1614 H         1 <0>         0.0954
     39 H19        -4.5856   -2.7489   -8.6236 H         1 <0>         0.4017
     40 H20        -3.6591   -2.0550   -9.8414 H         1 <0>         0.4019
@<TRIPOS>BOND
     1    1    2 1
     2    1   21 1
     3    1   22 1
     4    1   23 1
     5    2    7 ar
     6    2    3 ar
     7    3    4 ar
     8    3    9 1
     9    4    5 ar
    10    4   24 1
    11    5    6 ar
    12    5    8 1
    13    6    7 ar
    14    6   25 1
    15    8   26 1
    16    8   27 1
    17    9   10 2
    18    9   11 am
    19   11   16 1
    20   11   12 1
    21   12   13 1
    22   12   28 1
    23   12   29 1
    24   13   14 1
    25   13   30 1
    26   13   31 1
    27   14   15 1
    28   14   17 1
    29   14   32 1
    30   15   16 1
    31   15   33 1
    32   15   34 1
    33   16   35 1
    34   16   36 1
    35   17   18 1
    36   17   37 1
    37   17   38 1
    38   18   19 2
    39   18   20 am
    40   20   39 1
    41   20   40 1
@<TRIPOS>MOLECULE
ZINC50397195
   33    34     0     0     0
SMALL
USER_CHARGES

@<TRIPOS>ATOM
      1 C1         -0.0168    1.3849    0.0097 C.ar      1 <0>        -0.2178
      2 C2          1.1707    2.0901    0.0021 C.ar      1 <0>         0.0301
      3 C3          2.3774    1.4150   -0.0135 C.ar      1 <0>        -0.7362
      4 C4          2.3998    0.0323   -0.0211 C.ar      1 <0>         0.0235
      5 C5          1.2161   -0.6790   -0.0137 C.ar      1 <0>        -0.2171
      6 C6          0.0021   -0.0041    0.0020 C.ar      1 <0>         0.2685
      7 N1         -1.1970   -0.7204    0.0101 N.pl3     1 <0>        -0.8661
      8 S1          3.8900    2.3186   -0.0243 S.o2      1 <0>         2.6916
      9 O1          4.8717    1.4606   -0.5894 O.2       1 <0>        -0.9319
     10 O2          3.5945    3.5988   -0.5657 O.2       1 <0>        -0.9613
     11 N2          4.3264    2.5618    1.5546 N.pl3     1 <0>        -1.1005
     12 C7          4.6709    1.4188    2.4037 C.3       1 <0>         0.1483
     13 H1          4.1831    0.5227    2.0200 H         1 <0>         0.1143
     14 C8          4.1932    1.6851    3.8334 C.3       1 <0>        -0.1301
     15 C9          4.7985    0.6180    4.7533 C.3       1 <0>        -0.1371
     16 C10         6.3111    0.8318    4.8222 C.3       1 <0>         0.1057
     17 N3          6.8732    0.9360    3.4814 N.am      1 <0>        -0.7206
     18 C11         6.1594    1.2200    2.3929 C.2       1 <0>         0.4930
     19 O3          6.7443    1.3214    1.3353 O.2       1 <0>        -0.5139
     20 H2         -0.9589    1.9127    0.0260 H         1 <0>         0.1306
     21 H3          1.1567    3.1700    0.0080 H         1 <0>         0.1395
     22 H4          3.3440   -0.4918   -0.0333 H         1 <0>         0.1389
     23 H5          1.2342   -1.7588   -0.0200 H         1 <0>         0.1306
     24 H6         -2.0441   -0.2480    0.0210 H         1 <0>         0.4037
     25 H7         -1.1825   -1.6903    0.0047 H         1 <0>         0.4036
     26 H8          4.3538    3.4611    1.9172 H         1 <0>         0.4204
     27 H9          4.5225    2.6741    4.1521 H         1 <0>         0.0819
     28 H10         3.1053    1.6296    3.8731 H         1 <0>         0.0875
     29 H11         4.3704    0.7101    5.7515 H         1 <0>         0.0930
     30 H12         4.5872   -0.3732    4.3522 H         1 <0>         0.0773
     31 H13         6.5207    1.7489    5.3729 H         1 <0>         0.0683
     32 H14         6.7707   -0.0094    5.3412 H         1 <0>         0.0803
     33 H15         7.8264    0.7909    3.3756 H         1 <0>         0.4021
@<TRIPOS>BOND
     1    1    6 ar
     2    1    2 ar
     3    1   20 1
     4    2    3 ar
     5    2   21 1
     6    3    4 ar
     7    3    8 1
     8    4    5 ar
     9    4   22 1
    10    5    6 ar
    11    5   23 1
    12    6    7 1
    13    7   24 1
    14    7   25 1
    15    8    9 2
    16    8   10 2
    17    8   11 1
    18   11   12 1
    19   11   26 1
    20   12   13 1
    21   12   18 1
    22   12   14 1
    23   14   15 1
    24   14   27 1
    25   14   28 1
    26   15   16 1
    27   15   29 1
    28   15   30 1
    29   16   17 1
    30   16   31 1
    31   16   32 1
    32   17   18 am
    33   17   33 1
    34   18   19 2
@<TRIPOS>MOLECULE
ZINC54207754
   32    32     0     0     0
SMALL
USER_CHARGES

@<TRIPOS>ATOM
      1 C1          0.0009    1.4423    0.1487 C.3       1 <0>         0.0744
      2 N1          0.0053   -0.0106   -0.0390 N.pl3     1 <0>        -0.7246
      3 C2         -1.1907   -0.7188   -0.0109 C.ar      1 <0>         0.2503
      4 C3         -1.1857   -2.1028    0.2184 C.ar      1 <0>        -0.2068
      5 C4         -2.3949   -2.8029    0.2441 C.ar      1 <0>        -0.0453
      6 C5         -3.5820   -2.1330    0.0448 C.ar      1 <0>        -0.1613
      7 C6         -3.5856   -0.7658   -0.1821 C.ar      1 <0>        -0.0744
      8 C7         -2.3995   -0.0580   -0.2045 C.ar      1 <0>         0.0124
      9 F1         -2.4130    1.2756   -0.4204 F         1 <0>        -0.1348
     10 C8          0.0879   -2.8147    0.4306 C.2       1 <0>         0.5742
     11 O1          1.1272   -2.1892    0.5158 O.2       1 <0>        -0.5397
     12 N2          0.1002   -4.1587    0.5302 N.am      1 <0>        -0.7205
     13 C9          1.3657   -4.8661    0.7410 C.3       1 <0>         0.1328
     14 C10         1.1020   -6.3712    0.8176 C.3       1 <0>        -0.6522
     15 S1          2.6690   -7.2471    1.0787 S.o2      1 <0>         2.6286
     16 O2          3.4922   -7.1315   -0.0738 O.2       1 <0>        -0.9533
     17 O3          3.1847   -6.9533    2.3698 O.2       1 <0>        -0.9505
     18 N3          2.2553   -8.8493    1.1435 N.pl3     1 <0>        -1.2476
     19 H1          1.0225    1.8187    0.0953 H         1 <0>         0.0753
     20 H2         -0.5992    1.9079   -0.6331 H         1 <0>         0.0714
     21 H3         -0.4239    1.6814    1.1236 H         1 <0>         0.0548
     22 H4          0.8428   -0.4785   -0.1829 H         1 <0>         0.4208
     23 H5         -2.3987   -3.8685    0.4197 H         1 <0>         0.1298
     24 H6         -4.5152   -2.6764    0.0651 H         1 <0>         0.1370
     25 H7         -4.5215   -0.2500   -0.3380 H         1 <0>         0.1406
     26 H8         -0.7288   -4.6577    0.4622 H         1 <0>         0.4050
     27 H9          2.0412   -4.6573   -0.0885 H         1 <0>         0.0889
     28 H10         1.8195   -4.5288    1.6729 H         1 <0>         0.0889
     29 H11         0.4265   -6.5800    1.6471 H         1 <0>         0.1423
     30 H12         0.6482   -6.7085   -0.1143 H         1 <0>         0.1450
     31 H13         2.8850   -9.5251    0.8476 H         1 <0>         0.4240
     32 H14         1.3832   -9.1119    1.4773 H         1 <0>         0.4146
@<TRIPOS>BOND
     1    1    2 1
     2    1   19 1
     3    1   20 1
     4    1   21 1
     5    2    3 1
     6    2   22 1
     7    3    8 ar
     8    3    4 ar
     9    4    5 ar
    10    4   10 1
    11    5    6 ar
    12    5   23 1
    13    6    7 ar
    14    6   24 1
    15    7    8 ar
    16    7   25 1
    17    8    9 1
    18   10   11 2
    19   10   12 am
    20   12   13 1
    21   12   26 1
    22   13   14 1
    23   13   27 1
    24   13   28 1
    25   14   15 1
    26   14   29 1
    27   14   30 1
    28   15   16 2
    29   15   17 2
    30   15   18 1
    31   18   31 1
    32   18   32 1
@<TRIPOS>MOLECULE
ZINC62832727
   36    38     0     0     0
SMALL
USER_CHARGES

@<TRIPOS>ATOM
      1 C1         -0.0184    1.5028    0.0103 C.3       1 <0>        -0.0881
      2 C2          0.0021   -0.0041    0.0020 C.ar      1 <0>         0.3200
      3 N1          0.0052   -0.6392   -1.1529 N.ar      1 <0>        -0.5153
      4 C3          0.0229   -1.9615   -1.1993 C.ar      1 <0>         0.1548
      5 C4          0.0383   -2.6776   -0.0126 C.ar      1 <0>        -0.2180
      6 C5          0.0345   -1.9746    1.1816 C.ar      1 <0>         0.1597
      7 N2          0.0218   -0.6515    1.1496 N.ar      1 <0>        -0.5052
      8 C6          0.0507   -2.7066    2.4988 C.3       1 <0>         0.1741
      9 N3          1.4307   -2.8198    2.9775 N.am      1 <0>        -0.7271
     10 C7          1.6901   -3.4414    4.1449 C.2       1 <0>         0.5962
     11 O1          0.7782   -3.9084    4.8013 O.2       1 <0>        -0.5376
     12 C8          3.0736   -3.5550    4.6249 C.2       1 <0>        -0.2436
     13 C9          4.1933   -3.0798    4.0076 C.2       1 <0>         0.1196
     14 N4          5.2865   -3.3746    4.7505 N.pl3     1 <0>        -0.5742
     15 H1          6.1969   -3.1375    4.5140 H         1 <0>         0.4196
     16 C10         4.9218   -4.0604    5.8933 C.ar      1 <0>         0.0313
     17 C11         3.5248   -4.1995    5.8720 C.ar      1 <0>        -0.0095
     18 C12         2.8708   -4.8523    6.9134 C.ar      1 <0>        -0.1577
     19 C13         3.6056   -5.3598    7.9710 C.ar      1 <0>         0.2009
     20 C14         4.9912   -5.2176    7.9921 C.ar      1 <0>        -0.1649
     21 C15         5.6456   -4.5804    6.9612 C.ar      1 <0>        -0.0769
     22 N5          2.9552   -6.0167    9.0212 N.pl3     1 <0>        -0.8799
     23 H2          1.0042    1.8801    0.0026 H         1 <0>         0.0878
     24 H3         -0.5455    1.8639   -0.8728 H         1 <0>         0.0879
     25 H4         -0.5286    1.8543    0.9071 H         1 <0>         0.0877
     26 H5          0.0250   -2.4758   -2.1490 H         1 <0>         0.1729
     27 H6          0.0526   -3.7575   -0.0185 H         1 <0>         0.1519
     28 H7         -0.5428   -2.1553    3.2281 H         1 <0>         0.0923
     29 H8         -0.3707   -3.7030    2.3660 H         1 <0>         0.0917
     30 H9          2.1577   -2.4475    2.4543 H         1 <0>         0.3972
     31 H10         4.2062   -2.5487    3.0673 H         1 <0>         0.1741
     32 H11         1.7965   -4.9618    6.8963 H         1 <0>         0.1315
     33 H12         5.5577   -5.6162    8.8207 H         1 <0>         0.1267
     34 H13         6.7200   -4.4740    6.9879 H         1 <0>         0.1236
     35 H14         1.9904   -6.1160    9.0077 H         1 <0>         0.3993
     36 H15         3.4691   -6.3727    9.7629 H         1 <0>         0.3972
@<TRIPOS>BOND
     1    1    2 1
     2    1   23 1
     3    1   24 1
     4    1   25 1
     5    2    7 ar
     6    2    3 ar
     7    3    4 ar
     8    4    5 ar
     9    4   26 1
    10    5    6 ar
    11    5   27 1
    12    6    7 ar
    13    6    8 1
    14    8    9 1
    15    8   28 1
    16    8   29 1
    17    9   10 am
    18    9   30 1
    19   10   11 2
    20   10   12 1
    21   12   17 1
    22   12   13 2
    23   13   14 1
    24   13   31 1
    25   14   15 1
    26   14   16 1
    27   16   21 ar
    28   16   17 ar
    29   17   18 ar
    30   18   19 ar
    31   18   32 1
    32   19   20 ar
    33   19   22 1
    34   20   21 ar
    35   20   33 1
    36   21   34 1
    37   22   35 1
    38   22   36 1
@<TRIPOS>MOLECULE
ZINC37130684
   40    41     0     0     0
SMALL
USER_CHARGES

@<TRIPOS>ATOM
      1 C1         -0.1764    1.5443   -0.4310 C.3       1 <0>        -0.0726
      2 C2         -0.1060    0.0442   -0.3056 C.2       1 <0>        -0.1377
      3 C3         -1.1178   -0.8534   -0.2171 C.2       1 <0>        -0.1568
      4 C4         -0.8139   -2.1975   -0.1086 C.2       1 <0>        -0.1305
      5 C5          0.4869   -2.5782   -0.0938 C.2       1 <0>        -0.1366
      6 S1          1.3316   -1.0125   -0.2429 S.3       1 <0>         0.0415
      7 C6          1.0690   -3.9640    0.0146 C.3       1 <0>        -0.0743
      8 C7         -1.9124   -3.2242   -0.0076 C.3       1 <0>         0.2079
      9 H1         -1.5802   -4.0513    0.6197 H         1 <0>         0.0892
     10 C8         -2.2511   -3.7477   -1.4048 C.3       1 <0>        -0.1635
     11 N1         -3.1027   -2.6092    0.5852 N.pl3     1 <0>        -0.7393
     12 C9         -4.0326   -3.3998    1.2640 C.ar      1 <0>         0.2353
     13 C10        -3.8267   -4.7693    1.3826 C.ar      1 <0>        -0.2039
     14 C11        -4.7462   -5.5520    2.0534 C.ar      1 <0>        -0.0477
     15 C12        -5.8730   -4.9768    2.6091 C.ar      1 <0>        -0.2056
     16 C13        -6.0849   -3.6083    2.4942 C.ar      1 <0>         0.1806
     17 C14        -5.1601   -2.8181    1.8258 C.ar      1 <0>        -0.2113
     18 N2         -7.2246   -3.0278    3.0554 N.pl3     1 <0>        -1.0604
     19 S2         -7.6963   -3.4429    4.5876 S.o2      1 <0>         2.8007
     20 O1         -8.8557   -2.6743    4.8778 O.2       1 <0>        -0.9781
     21 O2         -7.6898   -4.8628    4.6439 O.2       1 <0>        -0.9707
     22 N3         -6.5125   -2.9228    5.6221 N.pl3     1 <0>        -1.2583
     23 H2          0.8330    1.9523   -0.4837 H         1 <0>         0.0735
     24 H3         -0.7226    1.8080   -1.3367 H         1 <0>         0.0814
     25 H4         -0.6905    1.9577    0.4367 H         1 <0>         0.0813
     26 H5         -2.1460   -0.5233   -0.2308 H         1 <0>         0.1283
     27 H6          1.1958   -4.3839   -0.9833 H         1 <0>         0.0816
     28 H7          2.0369   -3.9136    0.5133 H         1 <0>         0.0760
     29 H8          0.3952   -4.5969    0.5921 H         1 <0>         0.0816
     30 H9         -3.0457   -4.4903   -1.3318 H         1 <0>         0.0650
     31 H10        -2.5834   -2.9206   -2.0321 H         1 <0>         0.0594
     32 H11        -1.3655   -4.2053   -1.8459 H         1 <0>         0.0659
     33 H12        -3.2449   -1.6529    0.5062 H         1 <0>         0.3986
     34 H13        -2.9470   -5.2220    0.9494 H         1 <0>         0.1242
     35 H14        -4.5842   -6.6159    2.1434 H         1 <0>         0.1293
     36 H15        -6.5900   -5.5915    3.1329 H         1 <0>         0.1544
     37 H16        -5.3200   -1.7535    1.7393 H         1 <0>         0.1248
     38 H17        -7.7398   -2.3816    2.5476 H         1 <0>         0.4282
     39 H18        -5.7294   -2.4684    5.2739 H         1 <0>         0.4161
     40 H19        -6.6021   -3.0725    6.5763 H         1 <0>         0.4225
@<TRIPOS>BOND
     1    1    2 1
     2    1   23 1
     3    1   24 1
     4    1   25 1
     5    2    6 1
     6    2    3 2
     7    3    4 1
     8    3   26 1
     9    4    5 2
    10    4    8 1
    11    5    6 1
    12    5    7 1
    13    7   27 1
    14    7   28 1
    15    7   29 1
    16    8    9 1
    17    8   10 1
    18    8   11 1
    19   10   30 1
    20   10   31 1
    21   10   32 1
    22   11   12 1
    23   11   33 1
    24   12   17 ar
    25   12   13 ar
    26   13   14 ar
    27   13   34 1
    28   14   15 ar
    29   14   35 1
    30   15   16 ar
    31   15   36 1
    32   16   17 ar
    33   16   18 1
    34   17   37 1
    35   18   19 1
    36   18   38 1
    37   19   20 2
    38   19   21 2
    39   19   22 1
    40   22   39 1
    41   22   40 1
@<TRIPOS>MOLECULE
ZINC41070083
   33    34     0     0     0
SMALL
USER_CHARGES

@<TRIPOS>ATOM
      1 C1         -0.5183    1.8227   -0.7930 C.3       1 <0>        -0.1612
      2 C2         -0.2160    0.4378   -0.2171 C.3       1 <0>         0.2421
      3 H1          0.2233    0.5448    0.7747 H         1 <0>         0.1105
      4 C3          0.7522   -0.2815   -1.1204 C.2       1 <0>        -0.1611
      5 C4          2.0910   -0.4421   -0.9816 C.2       1 <0>        -0.1415
      6 C5          2.7849   -1.1489   -1.9458 C.2       1 <0>        -0.1562
      7 C6          2.1061   -1.6605   -3.0016 C.2       1 <0>        -0.1680
      8 S1          0.4325   -1.1500   -2.6471 S.3       1 <0>         0.0437
      9 N1         -1.4583   -0.3327   -0.1204 N.pl3     1 <0>        -1.1144
     10 S2         -1.9387   -0.9494    1.3395 S.o2      1 <0>         2.6966
     11 O1         -3.1850   -1.5948    1.1174 O.2       1 <0>        -0.9540
     12 O2         -0.8151   -1.6287    1.8829 O.2       1 <0>        -0.9394
     13 C7         -2.2623    0.4186    2.4018 C.ar      1 <0>        -0.7963
     14 C8         -1.5008    0.6182    3.5394 C.ar      1 <0>         0.0975
     15 C9         -1.7910    1.7097    4.3481 C.ar      1 <0>        -0.2283
     16 C10        -2.8234    2.5571    3.9955 C.ar      1 <0>         0.2432
     17 N2         -3.5331    2.3411    2.9043 N.ar      1 <0>        -0.5203
     18 C11        -3.2831    1.3155    2.1049 C.ar      1 <0>         0.5071
     19 N3         -4.0520    1.1300    0.9613 N.pl3     1 <0>        -0.5542
     20 N4         -5.0756    1.9896    0.6796 N.3       1 <0>        -0.5903
     21 Br1        -0.7838    2.0318    5.9158 Br        1 <0>        -0.0228
     22 H2          0.4060    2.3959   -0.8649 H         1 <0>         0.0782
     23 H3         -0.9576    1.7157   -1.7848 H         1 <0>         0.0693
     24 H4         -1.2186    2.3429   -0.1396 H         1 <0>         0.0709
     25 H5          2.6078   -0.0238   -0.1306 H         1 <0>         0.1363
     26 H6          3.8520   -1.2910   -1.8594 H         1 <0>         0.1369
     27 H7          2.4800   -2.2321   -3.8382 H         1 <0>         0.1873
     28 H8         -1.9994   -0.4816   -0.9115 H         1 <0>         0.4195
     29 H9         -0.6990   -0.0594    3.7931 H         1 <0>         0.1648
     30 H10        -3.0529    3.4070    4.6211 H         1 <0>         0.1768
     31 H11        -3.8616    0.3901    0.3636 H         1 <0>         0.4096
     32 H12        -5.5405    1.7298   -0.1773 H         1 <0>         0.3640
     33 H13        -5.7300    2.0362    1.4463 H         1 <0>         0.3536
@<TRIPOS>BOND
     1    1    2 1
     2    1   22 1
     3    1   23 1
     4    1   24 1
     5    2    3 1
     6    2    4 1
     7    2    9 1
     8    4    8 1
     9    4    5 2
    10    5    6 1
    11    5   25 1
    12    6    7 2
    13    6   26 1
    14    7    8 1
    15    7   27 1
    16    9   10 1
    17    9   28 1
    18   10   11 2
    19   10   12 2
    20   10   13 1
    21   13   18 ar
    22   13   14 ar
    23   14   15 ar
    24   14   29 1
    25   15   16 ar
    26   15   21 1
    27   16   17 ar
    28   16   30 1
    29   17   18 ar
    30   18   19 1
    31   19   20 1
    32   19   31 1
    33   20   32 1
    34   20   33 1
@<TRIPOS>MOLECULE
ZINC48001527
   43    45     0     0     0
SMALL
USER_CHARGES

@<TRIPOS>ATOM
      1 C1         -0.0187    1.5258    0.0104 C.3       1 <0>        -0.1615
      2 C2          0.0021   -0.0041    0.0020 C.3       1 <0>         0.1827
      3 H1          0.5123   -0.3556   -0.8948 H         1 <0>         0.1050
      4 C3         -1.4117   -0.5257    0.0127 C.ar      1 <0>        -0.0946
      5 C4         -2.1192   -0.5668    1.2129 C.ar      1 <0>        -0.1130
      6 C5         -3.3972   -1.0324    1.2573 C.ar      1 <0>        -0.0959
      7 C6         -4.0161   -1.4787    0.0772 C.ar      1 <0>        -0.0504
      8 C7         -5.3344   -1.9657    0.0835 C.ar      1 <0>        -0.1067
      9 C8         -5.9014   -2.3891   -1.0790 C.ar      1 <0>        -0.1134
     10 C9         -5.1941   -2.3477   -2.2792 C.ar      1 <0>        -0.1141
     11 C10        -3.9159   -1.8826   -2.3235 C.ar      1 <0>        -0.1053
     12 C11        -3.2969   -1.4366   -1.1433 C.ar      1 <0>        -0.0494
     13 C12        -1.9805   -0.9444   -1.1506 C.ar      1 <0>        -0.0870
     14 N1          0.7106   -0.4894    1.1889 N.am      1 <0>        -0.6900
     15 C13         2.0538   -0.5998    1.1737 C.2       1 <0>         0.5188
     16 O1          2.6763   -0.2972    0.1767 O.2       1 <0>        -0.5003
     17 C14         2.7759   -1.0944    2.3832 C.2       1 <0>         0.4997
     18 O2          2.1533   -1.3970    3.3803 O.2       1 <0>        -0.4807
     19 N2          4.1190   -1.2048    2.3680 N.am      1 <0>        -0.5822
     20 C15         4.7884   -1.6633    3.4892 C.2       1 <0>         0.0723
     21 C16         6.1556   -1.8349    3.6561 C.2       1 <0>        -0.2604
     22 C17         6.5921   -2.3328    4.9397 C.2       1 <0>        -0.1023
     23 C18         5.6180   -2.5766    5.8369 C.2       1 <0>        -0.2477
     24 S1          4.1340   -2.1323    4.9613 S.3       1 <0>         0.2903
     25 C19         7.1079   -1.5268    2.5841 C.2       1 <0>         0.5873
     26 O3          6.7056   -1.1090    1.5142 O.2       1 <0>        -0.5572
     27 N3          8.4287   -1.7064    2.7838 N.am      1 <0>        -0.8476
     28 H2          1.0039    1.9031    0.0027 H         1 <0>         0.0683
     29 H3         -0.5459    1.8868   -0.8726 H         1 <0>         0.0752
     30 H4         -0.5289    1.8773    0.9072 H         1 <0>         0.0638
     31 H5         -1.6459   -0.2244    2.1213 H         1 <0>         0.1232
     32 H6         -3.9329   -1.0590    2.1947 H         1 <0>         0.1311
     33 H7         -5.8945   -2.0040    1.0061 H         1 <0>         0.1285
     34 H8         -6.9145   -2.7632   -1.0713 H         1 <0>         0.1247
     35 H9         -5.6673   -2.6902   -3.1876 H         1 <0>         0.1249
     36 H10        -3.3798   -1.8567   -3.2608 H         1 <0>         0.1287
     37 H11        -1.4219   -0.9023   -2.0739 H         1 <0>         0.1314
     38 H12         0.2131   -0.7312    1.9857 H         1 <0>         0.4141
     39 H13         4.6165   -0.9629    1.5712 H         1 <0>         0.4453
     40 H14         7.6350   -2.4996    5.1657 H         1 <0>         0.1451
     41 H15         5.7145   -2.9481    6.8464 H         1 <0>         0.1920
     42 H16         8.7494   -2.0394    3.6366 H         1 <0>         0.4017
     43 H17         9.0585   -1.5027    2.0748 H         1 <0>         0.4057
@<TRIPOS>BOND
     1    1    2 1
     2    1   28 1
     3    1   29 1
     4    1   30 1
     5    2    3 1
     6    2    4 1
     7    2   14 1
     8    4   13 ar
     9    4    5 ar
    10    5    6 ar
    11    5   31 1
    12    6    7 ar
    13    6   32 1
    14    7   12 ar
    15    7    8 ar
    16    8    9 ar
    17    8   33 1
    18    9   10 ar
    19    9   34 1
    20   10   11 ar
    21   10   35 1
    22   11   12 ar
    23   11   36 1
    24   12   13 ar
    25   13   37 1
    26   14   15 am
    27   14   38 1
    28   15   16 2
    29   15   17 1
    30   17   18 2
    31   17   19 am
    32   19   20 1
    33   19   39 1
    34   20   24 1
    35   20   21 2
    36   21   22 1
    37   21   25 1
    38   22   23 2
    39   22   40 1
    40   23   24 1
    41   23   41 1
    42   25   26 2
    43   25   27 am
    44   27   42 1
    45   27   43 1
@<TRIPOS>MOLECULE
ZINC15911975
   32    33     0     0     0
SMALL
USER_CHARGES

@<TRIPOS>ATOM
      1 C1          0.0476    1.4773    0.9151 C.3       1 <0>        -0.1123
      2 C2          0.0629    0.0402    0.4617 C.2       1 <0>         0.2261
      3 C3         -1.1009   -0.5708    0.0950 C.2       1 <0>        -0.3307
      4 C4         -1.0611   -1.9123   -0.3246 C.2       1 <0>         0.5453
      5 O1         -2.0825   -2.4894   -0.6598 O.2       1 <0>        -0.5273
      6 N1          0.1290   -2.5494   -0.3498 N.am      1 <0>        -0.6431
      7 H1          0.1797   -3.4748   -0.6361 H         1 <0>         0.4141
      8 C5          1.2570   -1.8888    0.0273 C.2       1 <0>         0.6391
      9 N2          1.2123   -0.6294    0.4143 N.2       1 <0>        -0.5847
     10 N3          2.4599   -2.5416   -0.0005 N.pl3     1 <0>        -0.5266
     11 N4          3.6290   -1.8728    0.3853 N.pl3     1 <0>        -0.4378
     12 C6          4.8133   -2.5156    0.3580 C.2       1 <0>         0.5499
     13 S1          6.2419   -1.6983    0.8294 S.2       1 <0>        -0.5319
     14 N5          4.8730   -3.8017   -0.0406 N.pl3     1 <0>        -0.6332
     15 C7          6.1121   -4.4419   -0.1551 C.ar      1 <0>         0.1515
     16 C8          7.0571   -4.3139    0.8547 C.ar      1 <0>        -0.0677
     17 C9          8.2796   -4.9462    0.7404 C.ar      1 <0>        -0.0728
     18 C10         8.5646   -5.7074   -0.3791 C.ar      1 <0>        -0.0638
     19 C11         7.6242   -5.8375   -1.3888 C.ar      1 <0>         0.1165
     20 C12         6.3963   -5.2105   -1.2757 C.ar      1 <0>        -0.1446
     21 F1          7.9048   -6.5810   -2.4814 F         1 <0>        -0.1210
     22 Cl1        10.1025   -6.5003   -0.5196 Cl        1 <0>        -0.0399
     23 H2          1.0621    1.7917    1.1604 H         1 <0>         0.0840
     24 H3         -0.3445    2.1063    0.1160 H         1 <0>         0.0902
     25 H4         -0.5857    1.5733    1.7970 H         1 <0>         0.0902
     26 H5         -2.0369   -0.0330    0.1268 H         1 <0>         0.1596
     27 H6          2.5029   -3.4672   -0.2873 H         1 <0>         0.4330
     28 H7          3.5860   -0.9472    0.6722 H         1 <0>         0.4691
     29 H8          4.0571   -4.2835   -0.2480 H         1 <0>         0.4030
     30 H9          6.8360   -3.7196    1.7291 H         1 <0>         0.1651
     31 H10         9.0141   -4.8460    1.5258 H         1 <0>         0.1536
     32 H11         5.6613   -5.3155   -2.0600 H         1 <0>         0.1474
@<TRIPOS>BOND
     1    1    2 1
     2    1   23 1
     3    1   24 1
     4    1   25 1
     5    2    9 1
     6    2    3 2
     7    3    4 1
     8    3   26 1
     9    4    5 2
    10    4    6 am
    11    6    7 1
    12    6    8 1
    13    8    9 2
    14    8   10 1
    15   10   11 1
    16   10   27 1
    17   11   12 1
    18   11   28 1
    19   12   13 2
    20   12   14 1
    21   14   15 1
    22   14   29 1
    23   15   20 ar
    24   15   16 ar
    25   16   17 ar
    26   16   30 1
    27   17   18 ar
    28   17   31 1
    29   18   19 ar
    30   18   22 1
    31   19   20 ar
    32   19   21 1
    33   20   32 1
@<TRIPOS>MOLECULE
ZINC67103035
   42    43     0     0     0
SMALL
USER_CHARGES

@<TRIPOS>ATOM
      1 C1         -0.0184    1.5028    0.0103 C.3       1 <0>        -0.1187
      2 C2          0.0021   -0.0041    0.0020 C.ar      1 <0>        -0.0890
      3 C3          0.0058   -0.6879   -1.2010 C.ar      1 <0>        -0.0891
      4 C4          0.0245   -2.0710   -1.2175 C.ar      1 <0>        -0.1187
      5 C5          0.0396   -2.7779   -0.0326 C.ar      1 <0>        -0.0934
      6 C6          0.0364   -2.0945    1.1841 C.ar      1 <0>        -0.1270
      7 C7          0.0228   -0.6986    1.1936 C.ar      1 <0>        -0.0552
      8 C8          0.0526   -2.8454    2.4575 C.2       1 <0>         0.5647
      9 O1          0.0498   -2.2475    3.5158 O.2       1 <0>        -0.5244
     10 N1          0.0704   -4.1930    2.4450 N.am      1 <0>        -0.5275
     11 N2          0.0856   -4.9047    3.6517 N.am      1 <0>        -0.5283
     12 C9          0.1034   -6.2523    3.6391 C.2       1 <0>         0.7145
     13 O2          0.1167   -6.8699    4.6864 O.2       1 <0>        -0.5660
     14 N3          0.1065   -6.9152    2.4657 N.am      1 <0>        -0.7393
     15 C10         0.1258   -8.3801    2.4521 C.3       1 <0>         0.1081
     16 C11         0.1254   -8.8766    1.0049 C.3       1 <0>         0.1394
     17 H1          1.0079   -8.4968    0.4902 H         1 <0>         0.1200
     18 C12         0.1453  -10.3834    0.9908 C.ar      1 <0>        -0.0916
     19 C13        -1.0385  -11.0911    1.0889 C.ar      1 <0>        -0.1192
     20 C14        -1.0218  -12.4732    1.0761 C.ar      1 <0>        -0.0840
     21 C15         0.1786  -13.1494    0.9658 C.ar      1 <0>        -0.1484
     22 C16         1.3645  -12.4419    0.8676 C.ar      1 <0>         0.1039
     23 C17         1.3460  -11.0572    0.8743 C.ar      1 <0>        -0.1411
     24 F1          2.5385  -13.1018    0.7602 F         1 <0>        -0.1358
     25 O3         -1.0509   -8.4096    0.3414 O.3       1 <0>        -0.5488
     26 H2          1.0042    1.8801    0.0026 H         1 <0>         0.0754
     27 H3         -0.5455    1.8639   -0.8728 H         1 <0>         0.0710
     28 H4         -0.5286    1.8543    0.9071 H         1 <0>         0.0712
     29 H5         -0.0064   -0.1393   -2.1313 H         1 <0>         0.1307
     30 H6          0.0269   -2.5987   -2.1598 H         1 <0>         0.1335
     31 H7          0.0535   -3.8577   -0.0468 H         1 <0>         0.1235
     32 H8          0.0240   -0.1637    2.1318 H         1 <0>         0.1392
     33 H9          0.0726   -4.6702    1.6005 H         1 <0>         0.4193
     34 H10         0.0834   -4.4275    4.4962 H         1 <0>         0.4456
     35 H11         0.0959   -6.4225    1.6302 H         1 <0>         0.3956
     36 H12         1.0231   -8.7363    2.9582 H         1 <0>         0.0852
     37 H13        -0.7567   -8.7599    2.9668 H         1 <0>         0.0790
     38 H14        -1.9769  -10.5636    1.1758 H         1 <0>         0.1298
     39 H15        -1.9471  -13.0249    1.1528 H         1 <0>         0.1376
     40 H16         0.1915  -14.2293    0.9566 H         1 <0>         0.1388
     41 H17         2.2701  -10.5042    0.7933 H         1 <0>         0.1389
     42 H18        -1.8762   -8.7096    0.7463 H         1 <0>         0.3804
@<TRIPOS>BOND
     1    1    2 1
     2    1   26 1
     3    1   27 1
     4    1   28 1
     5    2    7 ar
     6    2    3 ar
     7    3    4 ar
     8    3   29 1
     9    4    5 ar
    10    4   30 1
    11    5    6 ar
    12    5   31 1
    13    6    7 ar
    14    6    8 1
    15    7   32 1
    16    8    9 2
    17    8   10 am
    18   10   11 1
    19   10   33 1
    20   11   12 am
    21   11   34 1
    22   12   13 2
    23   12   14 am
    24   14   15 1
    25   14   35 1
    26   15   16 1
    27   15   36 1
    28   15   37 1
    29   16   17 1
    30   16   18 1
    31   16   25 1
    32   18   23 ar
    33   18   19 ar
    34   19   20 ar
    35   19   38 1
    36   20   21 ar
    37   20   39 1
    38   21   22 ar
    39   21   40 1
    40   22   23 ar
    41   22   24 1
    42   23   41 1
    43   25   42 1
@<TRIPOS>MOLECULE
ZINC22603487
   45    46     0     0     0
SMALL
USER_CHARGES
2,4-difluoro-N-[4-oxo-4-(N'-(phenylcarbamothioyl)hydrazino)butyl]benzamide
@<TRIPOS>ATOM
      1 C1         -0.0506    4.1610    0.0597 C.ar      1 <0>        -0.1131
      2 C2         -0.8478    3.4487    0.9368 C.ar      1 <0>        -0.1099
      3 C3         -0.8329    2.0678    0.9201 C.ar      1 <0>        -0.0753
      4 C4         -0.0157    1.3946    0.0213 C.ar      1 <0>         0.1272
      5 C5          0.7879    2.1129   -0.8545 C.ar      1 <0>        -0.1242
      6 C6          0.7641    3.4937   -0.8365 C.ar      1 <0>        -0.1139
      7 N1          0.0021   -0.0041    0.0020 N.pl3     1 <0>        -0.6430
      8 C7         -1.1504   -0.6943    0.1110 C.2       1 <0>         0.5610
      9 S1         -2.6472    0.1365    0.1300 S.2       1 <0>        -0.5835
     10 N2         -1.1246   -2.0385    0.2051 N.pl3     1 <0>        -0.4762
     11 N3          0.1003   -2.7184    0.1896 N.am      1 <0>        -0.5610
     12 C8          0.1262   -4.0626    0.2837 C.2       1 <0>         0.5240
     13 O1         -0.9109   -4.6837    0.3818 O.2       1 <0>        -0.5242
     14 C9          1.4437   -4.7939    0.2669 C.3       1 <0>        -0.1291
     15 C10         1.1934   -6.2985    0.3868 C.3       1 <0>        -0.1186
     16 C11         2.5311   -7.0410    0.3698 C.3       1 <0>         0.1216
     17 N4          2.2914   -8.4817    0.4845 N.am      1 <0>        -0.7359
     18 C12         3.3310   -9.3394    0.4913 C.2       1 <0>         0.5617
     19 O2          4.4678   -8.9174    0.4021 O.2       1 <0>        -0.5240
     20 C13         3.0896  -10.7906    0.6069 C.ar      1 <0>        -0.1872
     21 C14         1.7844  -11.2788    0.7095 C.ar      1 <0>        -0.0273
     22 C15         1.5646  -12.6343    0.8167 C.ar      1 <0>        -0.1716
     23 C16         2.6356  -13.5165    0.8226 C.ar      1 <0>         0.1613
     24 C17         3.9325  -13.0413    0.7213 C.ar      1 <0>        -0.2029
     25 C18         4.1663  -11.6839    0.6083 C.ar      1 <0>         0.1928
     26 F1          5.4311  -11.2207    0.5039 F         1 <0>        -0.1041
     27 F2          2.4123  -14.8447    0.9280 F         1 <0>        -0.1224
     28 H1         -0.0641    5.2408    0.0748 H         1 <0>         0.1253
     29 H2         -1.4830    3.9729    1.6356 H         1 <0>         0.1285
     30 H3         -1.4557    1.5121    1.6054 H         1 <0>         0.1416
     31 H4          1.4275    1.5923   -1.5519 H         1 <0>         0.1231
     32 H5          1.3858    4.0528   -1.5201 H         1 <0>         0.1275
     33 H6          0.9567   -0.5406   -0.1021 H         1 <0>         0.4159
     34 H7         -2.0652   -2.6018    0.2941 H         1 <0>         0.4912
     35 H8          1.0409   -2.1551    0.1006 H         1 <0>         0.4392
     36 H9          1.9678   -4.5835   -0.6770 H         1 <0>         0.1081
     37 H10         2.0612   -4.4564    1.1123 H         1 <0>         0.1083
     38 H11         0.6692   -6.5089    1.3307 H         1 <0>         0.0831
     39 H12         0.5759   -6.6360   -0.4586 H         1 <0>         0.0831
     40 H13         3.0553   -6.8305   -0.5741 H         1 <0>         0.0719
     41 H14         3.1486   -6.7035    1.2153 H         1 <0>         0.0720
     42 H15         1.2629   -8.8634    0.5651 H         1 <0>         0.4214
     43 H16         0.9490  -10.5942    0.7045 H         1 <0>         0.1476
     44 H17         0.5558  -13.0116    0.8960 H         1 <0>         0.1522
     45 H18         4.7621  -13.7328    0.7264 H         1 <0>         0.1579
@<TRIPOS>BOND
     1    1    6 ar
     2    1    2 ar
     3    1   28 1
     4    2    3 ar
     5    2   29 1
     6    3    4 ar
     7    3   30 1
     8    4    5 ar
     9    4    7 1
    10    5    6 ar
    11    5   31 1
    12    6   32 1
    13    7    8 1
    14    7   33 1
    15    8    9 2
    16    8   10 1
    17   10   11 1
    18   10   34 1
    19   11   12 am
    20   11   35 1
    21   12   13 2
    22   12   14 1
    23   14   15 1
    24   14   36 1
    25   14   37 1
    26   15   16 1
    27   15   38 1
    28   15   39 1
    29   16   17 1
    30   16   40 1
    31   16   41 1
    32   17   18 am
    33   17   42 1
    34   18   19 2
    35   18   20 1
    36   20   25 ar
    37   20   21 ar
    38   21   22 ar
    39   21   43 1
    40   22   23 ar
    41   22   44 1
    42   23   24 ar
    43   23   27 1
    44   24   25 ar
    45   24   45 1
    46   25   26 1
@<TRIPOS>MOLECULE
ZINC47124847
   44    45     0     0     0
SMALL
USER_CHARGES

@<TRIPOS>ATOM
      1 C1         -0.0187    1.5258    0.0104 C.3       1 <0>        -0.1670
      2 C2          0.0021   -0.0041    0.0020 C.3       1 <0>         0.1127
      3 N1         -1.3723   -0.5112    0.0124 N.am      1 <0>        -0.7272
      4 C3         -1.6006   -1.8394    0.0075 C.2       1 <0>         0.5562
      5 O1         -0.6661   -2.6167   -0.0056 O.2       1 <0>        -0.5325
      6 C4         -2.9876   -2.3512    0.0180 C.ar      1 <0>        -0.1366
      7 C5         -4.0631   -1.4613    0.0272 C.ar      1 <0>        -0.0762
      8 C6         -5.3547   -1.9453    0.0365 C.ar      1 <0>        -0.1261
      9 C7         -5.5856   -3.3097    0.0371 C.ar      1 <0>        -0.0715
     10 C8         -4.5243   -4.1970    0.0280 C.ar      1 <0>        -0.1205
     11 C9         -3.2275   -3.7260    0.0129 C.ar      1 <0>        -0.0386
     12 C10        -4.7852   -5.6812    0.0293 C.3       1 <0>         0.1789
     13 N2         -4.8809   -6.1614   -1.3514 N.am      1 <0>        -0.7392
     14 C11        -5.1123   -7.4663   -1.5966 C.2       1 <0>         0.7145
     15 O2         -5.2415   -8.2450   -0.6717 O.2       1 <0>        -0.5698
     16 N3         -5.2003   -7.9081   -2.8668 N.am      1 <0>        -0.5313
     17 N4         -5.0514   -7.0109   -3.9324 N.pl3     1 <0>        -0.5490
     18 C12        -5.1427   -7.4688   -5.2491 C.ar      1 <0>         0.2170
     19 C13        -5.3870   -8.8139   -5.5020 C.ar      1 <0>        -0.1654
     20 C14        -5.4777   -9.2722   -6.8027 C.ar      1 <0>        -0.0643
     21 C15        -5.3269   -8.3977   -7.8597 C.ar      1 <0>        -0.1216
     22 C16        -5.0817   -7.0447   -7.6169 C.ar      1 <0>         0.0269
     23 C17        -4.9953   -6.5810   -6.3035 C.ar      1 <0>        -0.1420
     24 C18        -4.9247   -6.1351   -8.7117 C.1       1 <0>         0.2508
     25 N5         -4.8003   -5.4136   -9.5803 N.1       1 <0>        -0.4078
     26 H1          1.0039    1.9031    0.0027 H         1 <0>         0.0772
     27 H2         -0.5459    1.8868   -0.8726 H         1 <0>         0.0625
     28 H3         -0.5289    1.8773    0.9072 H         1 <0>         0.0628
     29 H4          0.5123   -0.3556   -0.8948 H         1 <0>         0.0702
     30 H5          0.5293   -0.3651    0.8851 H         1 <0>         0.0705
     31 H6         -2.1181    0.1091    0.0229 H         1 <0>         0.4001
     32 H7         -3.8843   -0.3962    0.0274 H         1 <0>         0.1280
     33 H8         -6.1877   -1.2579    0.0436 H         1 <0>         0.1342
     34 H9         -6.5988   -3.6835    0.0451 H         1 <0>         0.1321
     35 H10        -2.3998   -4.4197    0.0016 H         1 <0>         0.1397
     36 H11        -3.9674   -6.1934    0.5363 H         1 <0>         0.0832
     37 H12        -5.7204   -5.8853    0.5506 H         1 <0>         0.0836
     38 H13        -4.7778   -5.5402   -2.0892 H         1 <0>         0.3934
     39 H14        -5.3669   -8.8473   -3.0432 H         1 <0>         0.4353
     40 H15        -4.8848   -6.0717   -3.7560 H         1 <0>         0.4233
     41 H16        -5.5059   -9.5032   -4.6791 H         1 <0>         0.1263
     42 H17        -5.6670  -10.3184   -6.9926 H         1 <0>         0.1380
     43 H18        -5.3982   -8.7600   -8.8747 H         1 <0>         0.1338
     44 H19        -4.8098   -5.5349   -6.1093 H         1 <0>         0.1351
@<TRIPOS>BOND
     1    1    2 1
     2    1   26 1
     3    1   27 1
     4    1   28 1
     5    2    3 1
     6    2   29 1
     7    2   30 1
     8    3    4 am
     9    3   31 1
    10    4    5 2
    11    4    6 1
    12    6   11 ar
    13    6    7 ar
    14    7    8 ar
    15    7   32 1
    16    8    9 ar
    17    8   33 1
    18    9   10 ar
    19    9   34 1
    20   10   11 ar
    21   10   12 1
    22   11   35 1
    23   12   13 1
    24   12   36 1
    25   12   37 1
    26   13   14 am
    27   13   38 1
    28   14   15 2
    29   14   16 am
    30   16   17 1
    31   16   39 1
    32   17   18 1
    33   17   40 1
    34   18   23 ar
    35   18   19 ar
    36   19   20 ar
    37   19   41 1
    38   20   21 ar
    39   20   42 1
    40   21   22 ar
    41   21   43 1
    42   22   23 ar
    43   22   24 1
    44   23   44 1
    45   24   25 3
@<TRIPOS>MOLECULE
ZINC55850256
   45    47     0     0     0
SMALL
USER_CHARGES

@<TRIPOS>ATOM
      1 C1         -0.0166    1.3751    0.0096 C.ar      1 <0>        -0.1262
      2 C2          1.1704    2.0863    0.0021 C.ar      1 <0>        -0.0708
      3 C3          2.3828    1.4202   -0.0131 C.ar      1 <0>        -0.1173
      4 C4          2.4156    0.0409   -0.0213 C.ar      1 <0>        -0.0376
      5 C5          1.2221   -0.6824   -0.0138 C.ar      1 <0>        -0.1366
      6 C6          0.0021   -0.0041    0.0020 C.ar      1 <0>        -0.0761
      7 C7          1.2496   -2.1606   -0.0230 C.2       1 <0>         0.5614
      8 O1          2.3134   -2.7485   -0.0371 O.2       1 <0>        -0.5296
      9 N1          0.0952   -2.8561   -0.0157 N.am      1 <0>        -0.7250
     10 C8          0.1225   -4.3208   -0.0248 C.3       1 <0>         0.2040
     11 C9         -1.2886   -4.8496   -0.0140 C.2       1 <0>        -0.0455
     12 C10        -2.0342   -5.1241   -1.0994 C.2       1 <0>        -0.1789
     13 C11        -3.2825   -5.5940   -0.6307 C.2       1 <0>        -0.2181
     14 C12        -3.2252   -5.5785    0.7131 C.2       1 <0>        -0.0248
     15 O2         -2.0130   -5.1323    1.0811 O.3       1 <0>        -0.1714
     16 C13         3.6706    2.2029   -0.0212 C.3       1 <0>         0.1656
     17 N2          4.1011    2.4491    1.3573 N.pl3     1 <0>        -0.7418
     18 C14         5.2785    3.1619    1.6055 C.ar      1 <0>         0.2005
     19 C15         6.0371    3.6415    0.5433 C.ar      1 <0>        -0.1400
     20 C16         7.2007    4.3466    0.7812 C.ar      1 <0>        -0.1123
     21 C17         7.6198    4.5801    2.0786 C.ar      1 <0>         0.1029
     22 C18         6.8636    4.1016    3.1527 C.ar      1 <0>        -0.1284
     23 C19         5.6849    3.3942    2.9091 C.ar      1 <0>        -0.1367
     24 C20         7.3071    4.3483    4.5399 C.2       1 <0>         0.5613
     25 O3          8.3315    4.9685    4.7493 O.2       1 <0>        -0.5232
     26 N3          6.5760    3.8859    5.5734 N.am      1 <0>        -0.8491
     27 F1          8.7590    5.2693    2.3075 F         1 <0>        -0.1201
     28 H1         -0.9597    1.9011    0.0260 H         1 <0>         0.1338
     29 H2          1.1503    3.1661    0.0077 H         1 <0>         0.1316
     30 H3          3.3627   -0.4779   -0.0339 H         1 <0>         0.1398
     31 H4         -0.9251   -0.5579    0.0083 H         1 <0>         0.1273
     32 H5         -0.7537   -2.3869   -0.0044 H         1 <0>         0.4037
     33 H6          0.6342   -4.6691   -0.9220 H         1 <0>         0.1031
     34 H7          0.6519   -4.6799    0.8578 H         1 <0>         0.0889
     35 H8         -1.7365   -5.0074   -2.1310 H         1 <0>         0.1520
     36 H9         -4.1214   -5.9052   -1.2355 H         1 <0>         0.1525
     37 H10        -4.0179   -5.8780    1.3826 H         1 <0>         0.2068
     38 H11         4.4383    1.6339   -0.5454 H         1 <0>         0.0744
     39 H12         3.5140    3.1549   -0.5284 H         1 <0>         0.0745
     40 H13         3.5695    2.1178    2.0979 H         1 <0>         0.4033
     41 H14         5.7152    3.4618   -0.4719 H         1 <0>         0.1372
     42 H15         7.7853    4.7164   -0.0482 H         1 <0>         0.1440
     43 H16         5.0940    3.0255    3.7345 H         1 <0>         0.1332
     44 H17         5.7586    3.3910    5.4063 H         1 <0>         0.4002
     45 H18         6.8672    4.0479    6.4843 H         1 <0>         0.4074
@<TRIPOS>BOND
     1    1    6 ar
     2    1    2 ar
     3    1   28 1
     4    2    3 ar
     5    2   29 1
     6    3    4 ar
     7    3   16 1
     8    4    5 ar
     9    4   30 1
    10    5    6 ar
    11    5    7 1
    12    6   31 1
    13    7    8 2
    14    7    9 am
    15    9   10 1
    16    9   32 1
    17   10   11 1
    18   10   33 1
    19   10   34 1
    20   11   15 1
    21   11   12 2
    22   12   13 1
    23   12   35 1
    24   13   14 2
    25   13   36 1
    26   14   15 1
    27   14   37 1
    28   16   17 1
    29   16   38 1
    30   16   39 1
    31   17   18 1
    32   17   40 1
    33   18   23 ar
    34   18   19 ar
    35   19   20 ar
    36   19   41 1
    37   20   21 ar
    38   20   42 1
    39   21   22 ar
    40   21   27 1
    41   22   23 ar
    42   22   24 1
    43   23   43 1
    44   24   25 2
    45   24   26 am
    46   26   44 1
    47   26   45 1
@<TRIPOS>MOLECULE
ZINC63435229
   46    47     0     0     0
SMALL
USER_CHARGES

@<TRIPOS>ATOM
      1 C1         -0.0184    1.5028    0.0103 C.3       1 <0>        -0.1168
      2 C2          0.0021   -0.0041    0.0020 C.ar      1 <0>        -0.0822
      3 C3          0.0057   -0.6888   -1.1991 C.ar      1 <0>        -0.1228
      4 C4          0.0245   -2.0707   -1.2067 C.ar      1 <0>        -0.1101
      5 C5          0.0400   -2.7685   -0.0132 C.ar      1 <0>        -0.1292
      6 C6          0.0373   -2.0840    1.1875 C.ar      1 <0>        -0.0665
      7 C7          0.0229   -0.7015    1.1951 C.ar      1 <0>        -0.1119
      8 C8          0.0538   -2.8445    2.4885 C.3       1 <0>        -0.0343
      9 C9          1.3023   -2.4631    3.2864 C.3       1 <0>        -0.1437
     10 C10        -1.1960   -2.4954    3.2991 C.3       1 <0>        -0.1436
     11 C11         0.0718   -4.3471    2.2006 C.3       1 <0>         0.1242
     12 N1          0.0878   -5.0864    3.4653 N.am      1 <0>        -0.6919
     13 C12         0.1052   -6.4340    3.4579 C.2       1 <0>         0.5155
     14 O1          0.1076   -7.0351    2.4035 O.2       1 <0>        -0.5013
     15 C13         0.1215   -7.1874    4.7467 C.2       1 <0>         0.4999
     16 O2          0.1191   -6.5863    5.8012 O.2       1 <0>        -0.4816
     17 N2          0.1389   -8.5351    4.7392 N.am      1 <0>        -0.5824
     18 C14         0.1541   -9.2335    5.9340 C.2       1 <0>         0.0723
     19 C15         0.1784  -10.6091    6.1180 C.2       1 <0>        -0.2606
     20 C16         0.1900  -11.0778    7.4841 C.2       1 <0>        -0.1023
     21 C17         0.1758  -10.1222    8.4327 C.2       1 <0>        -0.2479
     22 S1          0.1545   -8.6118    7.4923 S.3       1 <0>         0.2905
     23 C18         0.1913  -11.5387    4.9837 C.2       1 <0>         0.5872
     24 O3          0.1806  -11.1094    3.8449 O.2       1 <0>        -0.5573
     25 N3          0.2150  -12.8684    5.2024 N.am      1 <0>        -0.8476
     26 H1          1.0042    1.8801    0.0026 H         1 <0>         0.0711
     27 H2         -0.5455    1.8639   -0.8728 H         1 <0>         0.0670
     28 H3         -0.5286    1.8543    0.9071 H         1 <0>         0.0664
     29 H4         -0.0064   -0.1437   -2.1314 H         1 <0>         0.1214
     30 H5          0.0266   -2.6056   -2.1449 H         1 <0>         0.1233
     31 H6          0.0540   -3.8484   -0.0191 H         1 <0>         0.1258
     32 H7          0.0246   -0.1666    2.1333 H         1 <0>         0.1219
     33 H8          1.2895   -1.3926    3.4915 H         1 <0>         0.0661
     34 H9          1.3142   -3.0132    4.2273 H         1 <0>         0.0607
     35 H10         2.1926   -2.7118    2.7088 H         1 <0>         0.0626
     36 H11        -2.0854   -2.7671    2.7307 H         1 <0>         0.0626
     37 H12        -1.1840   -3.0455    4.2401 H         1 <0>         0.0606
     38 H13        -1.2088   -1.4250    3.5042 H         1 <0>         0.0660
     39 H14        -0.8177   -4.6188    1.6322 H         1 <0>         0.0824
     40 H15         0.9621   -4.5957    1.6231 H         1 <0>         0.0824
     41 H16         0.0859   -4.6060    4.3080 H         1 <0>         0.4142
     42 H17         0.1408   -9.0155    3.8966 H         1 <0>         0.4453
     43 H18         0.2086  -12.1294    7.7295 H         1 <0>         0.1451
     44 H19         0.1805  -10.2433    9.5059 H         1 <0>         0.1920
     45 H20         0.2235  -13.2106    6.1100 H         1 <0>         0.4017
     46 H21         0.2235  -13.4832    4.4522 H         1 <0>         0.4057
@<TRIPOS>BOND
     1    1    2 1
     2    1   26 1
     3    1   27 1
     4    1   28 1
     5    2    7 ar
     6    2    3 ar
     7    3    4 ar
     8    3   29 1
     9    4    5 ar
    10    4   30 1
    11    5    6 ar
    12    5   31 1
    13    6    7 ar
    14    6    8 1
    15    7   32 1
    16    8    9 1
    17    8   10 1
    18    8   11 1
    19    9   33 1
    20    9   34 1
    21    9   35 1
    22   10   36 1
    23   10   37 1
    24   10   38 1
    25   11   12 1
    26   11   39 1
    27   11   40 1
    28   12   13 am
    29   12   41 1
    30   13   14 2
    31   13   15 1
    32   15   16 2
    33   15   17 am
    34   17   18 1
    35   17   42 1
    36   18   22 1
    37   18   19 2
    38   19   20 1
    39   19   23 1
    40   20   21 2
    41   20   43 1
    42   21   22 1
    43   21   44 1
    44   23   24 2
    45   23   25 am
    46   25   45 1
    47   25   46 1
@<TRIPOS>MOLECULE
ZINC67196441
   41    42     0     0     0
SMALL
USER_CHARGES

@<TRIPOS>ATOM
      1 C1          0.1565    1.0357    0.5323 C.3       1 <0>        -0.1669
      2 C2          0.0836   -0.4106    0.0387 C.3       1 <0>         0.1414
      3 H1          0.6321   -1.0566    0.7243 H         1 <0>         0.1291
      4 C3          0.6942   -0.5036   -1.3360 C.2       1 <0>         0.5199
      5 O1          0.0254   -0.8880   -2.2718 O.2       1 <0>        -0.5082
      6 N1          1.9834   -0.1594   -1.5254 N.am      1 <0>        -0.5451
      7 N2          2.5510   -0.2458   -2.8033 N.pl3     1 <0>        -0.4625
      8 C4          3.8403    0.0983   -2.9927 C.2       1 <0>         0.5538
      9 S1          4.5339   -0.0073   -4.5544 S.2       1 <0>        -0.5543
     10 N3          4.5835    0.5256   -1.9528 N.pl3     1 <0>        -0.6296
     11 C5          5.9445    0.7970   -2.1303 C.ar      1 <0>         0.1160
     12 C6          6.3682    1.5366   -3.2283 C.ar      1 <0>        -0.0579
     13 C7          7.7113    1.8077   -3.4078 C.ar      1 <0>        -0.1100
     14 C8          8.6409    1.3459   -2.4978 C.ar      1 <0>        -0.0822
     15 C9          8.2255    0.6026   -1.3922 C.ar      1 <0>         0.0143
     16 C10         6.8697    0.3335   -1.2082 C.ar      1 <0>        -0.0953
     17 C11         9.1880    0.1221   -0.4470 C.1       1 <0>        -0.1549
     18 C12         9.9770   -0.2719    0.3279 C.1       1 <0>        -0.1670
     19 N4         -1.3168   -0.8369   -0.0191 N.am      1 <0>        -0.7125
     20 C13        -1.9204   -1.3196    1.0850 C.2       1 <0>         0.6165
     21 O2         -1.3021   -1.4012    2.1301 O.2       1 <0>        -0.5215
     22 C14        -3.3216   -1.7461    1.0272 C.2       1 <0>        -0.2680
     23 C15        -4.1213   -2.2595    2.0369 C.2       1 <0>        -0.0592
     24 C16        -5.4101   -2.5724    1.6768 C.2       1 <0>        -0.1872
     25 C17        -5.8054   -2.3655    0.3963 C.2       1 <0>        -0.2162
     26 S2         -4.4440   -1.7328   -0.3578 S.3       1 <0>         0.2156
     27 H2          1.1984    1.3529    0.5754 H         1 <0>         0.0733
     28 H3         -0.3920    1.6817   -0.1532 H         1 <0>         0.0725
     29 H4         -0.2851    1.1029    1.5266 H         1 <0>         0.0875
     30 H5          2.5183    0.1481   -0.7769 H         1 <0>         0.4233
     31 H6          2.0161   -0.5533   -3.5518 H         1 <0>         0.4623
     32 H7          4.1748    0.6449   -1.0812 H         1 <0>         0.4013
     33 H8          5.6454    1.9001   -3.9438 H         1 <0>         0.1520
     34 H9          8.0348    2.3825   -4.2630 H         1 <0>         0.1374
     35 H10         9.6898    1.5596   -2.6417 H         1 <0>         0.1313
     36 H11         6.5421   -0.2378   -0.3522 H         1 <0>         0.1287
     37 H12        10.6827   -0.6243    1.0210 H         1 <0>         0.2254
     38 H13        -1.8096   -0.7718   -0.8521 H         1 <0>         0.4122
     39 H14        -3.7546   -2.4045    3.0423 H         1 <0>         0.1514
     40 H15        -6.0985   -2.9778    2.4035 H         1 <0>         0.1414
     41 H16        -6.7751   -2.5586   -0.0382 H         1 <0>         0.1916
@<TRIPOS>BOND
     1    1    2 1
     2    1   27 1
     3    1   28 1
     4    1   29 1
     5    2    3 1
     6    2    4 1
     7    2   19 1
     8    4    5 2
     9    4    6 am
    10    6    7 1
    11    6   30 1
    12    7    8 1
    13    7   31 1
    14    8    9 2
    15    8   10 1
    16   10   11 1
    17   10   32 1
    18   11   16 ar
    19   11   12 ar
    20   12   13 ar
    21   12   33 1
    22   13   14 ar
    23   13   34 1
    24   14   15 ar
    25   14   35 1
    26   15   16 ar
    27   15   17 1
    28   16   36 1
    29   17   18 3
    30   18   37 1
    31   19   20 am
    32   19   38 1
    33   20   21 2
    34   20   22 1
    35   22   26 1
    36   22   23 2
    37   23   24 1
    38   23   39 1
    39   24   25 2
    40   24   40 1
    41   25   26 1
    42   25   41 1
@<TRIPOS>MOLECULE
ZINC22602837
   45    46     0     0     0
SMALL
USER_CHARGES
N-[3-[N'-[(2,5-dimethylphenyl)carbamothioyl]hydrazino]-3-oxo-propyl]thiophene-3-carboxamide
@<TRIPOS>ATOM
      1 C1         13.1092    3.7081    1.3592 C.3       1 <0>        -0.1162
      2 C2         11.9002    4.3425    0.7214 C.ar      1 <0>        -0.0794
      3 C3         11.9748    5.6340    0.2323 C.ar      1 <0>        -0.1091
      4 C4         10.8676    6.2200   -0.3527 C.ar      1 <0>        -0.1119
      5 C5          9.6829    5.5165   -0.4510 C.ar      1 <0>        -0.0954
      6 C6          9.6048    4.2194    0.0386 C.ar      1 <0>         0.1323
      7 C7         10.7173    3.6357    0.6310 C.ar      1 <0>        -0.0707
      8 N1          8.4065    3.5041   -0.0594 N.pl3     1 <0>        -0.6414
      9 C8          8.4211    2.2160   -0.4557 C.2       1 <0>         0.5612
     10 S1          9.8856    1.4962   -0.9734 S.2       1 <0>        -0.5805
     11 N2          7.2827    1.4946   -0.4444 N.pl3     1 <0>        -0.4763
     12 N3          6.0843    2.0837   -0.0207 N.am      1 <0>        -0.5600
     13 C9          4.9459    1.3622   -0.0095 C.2       1 <0>         0.5273
     14 O1          4.9590    0.2031   -0.3661 O.2       1 <0>        -0.5161
     15 C10         3.6567    1.9959    0.4463 C.3       1 <0>        -0.1437
     16 C11         2.5260    0.9686    0.3626 C.3       1 <0>         0.1366
     17 N4          1.2728    1.5845    0.8056 N.am      1 <0>        -0.7400
     18 C12         0.1345    0.8631    0.8169 C.2       1 <0>         0.5753
     19 O2          0.1476   -0.2994    0.4592 O.2       1 <0>        -0.5321
     20 C13        -1.1258    1.4837    1.2562 C.2       1 <0>        -0.1719
     21 C14        -2.3636    0.7453    1.2702 C.2       1 <0>        -0.1131
     22 C15        -3.4628    1.3991    1.6942 C.2       1 <0>        -0.1888
     23 S2         -2.8449    3.0272    2.0682 S.3       1 <0>         0.1277
     24 C16        -1.1757    2.7995    1.6675 C.2       1 <0>        -0.1780
     25 C17         8.4767    6.1557   -1.0893 C.3       1 <0>        -0.1138
     26 H1         13.9491    4.4182    1.3397 H         1 <0>         0.0662
     27 H2         13.3836    2.8001    0.8022 H         1 <0>         0.0742
     28 H3         12.8773    3.4429    2.4013 H         1 <0>         0.0690
     29 H4         12.8999    6.1862    0.3080 H         1 <0>         0.1251
     30 H5         10.9289    7.2290   -0.7330 H         1 <0>         0.1273
     31 H6         10.6584    2.6288    1.0171 H         1 <0>         0.1384
     32 H7          7.4524    3.9930    0.1870 H         1 <0>         0.4131
     33 H8          7.2945    0.4433   -0.7678 H         1 <0>         0.4920
     34 H9          6.0725    3.1350    0.3028 H         1 <0>         0.4376
     35 H10         3.7643    2.3389    1.4859 H         1 <0>         0.1114
     36 H11         3.4212    2.8540   -0.2004 H         1 <0>         0.1112
     37 H12         2.4185    0.6255   -0.6770 H         1 <0>         0.0804
     38 H13         2.7615    0.1105    1.0093 H         1 <0>         0.0804
     39 H14         1.2609    2.6358    1.1290 H         1 <0>         0.4168
     40 H15        -2.4072   -0.2879    0.9586 H         1 <0>         0.1499
     41 H16        -4.4732    1.0279    1.7815 H         1 <0>         0.1923
     42 H17        -0.3688    3.5150    1.7250 H         1 <0>         0.1900
     43 H18         7.6358    5.4467   -1.0758 H         1 <0>         0.0520
     44 H19         8.7121    6.4257   -2.1294 H         1 <0>         0.0764
     45 H20         8.2018    7.0613   -0.5286 H         1 <0>         0.0743
@<TRIPOS>BOND
     1    1    2 1
     2    1   26 1
     3    1   27 1
     4    1   28 1
     5    2    7 ar
     6    2    3 ar
     7    3    4 ar
     8    3   29 1
     9    4    5 ar
    10    4   30 1
    11    5    6 ar
    12    5   25 1
    13    6    7 ar
    14    6    8 1
    15    7   31 1
    16    8    9 1
    17    8   32 1
    18    9   10 2
    19    9   11 1
    20   11   12 1
    21   11   33 1
    22   12   13 am
    23   12   34 1
    24   13   14 2
    25   13   15 1
    26   15   16 1
    27   15   35 1
    28   15   36 1
    29   16   17 1
    30   16   37 1
    31   16   38 1
    32   17   18 am
    33   17   39 1
    34   18   19 2
    35   18   20 1
    36   20   24 2
    37   20   21 1
    38   21   22 2
    39   21   40 1
    40   22   23 1
    41   22   41 1
    42   23   24 1
    43   24   42 1
    44   25   43 1
    45   25   44 1
    46   25   45 1
@<TRIPOS>MOLECULE
ZINC46294151
   38    38     0     0     0
SMALL
USER_CHARGES

@<TRIPOS>ATOM
      1 C1         -0.0187    1.5258    0.0104 C.3       1 <0>        -0.1621
      2 C2          0.0021   -0.0041    0.0020 C.3       1 <0>         0.2332
      3 H1         -1.0205   -0.3814    0.0098 H         1 <0>         0.1118
      4 C3          0.7309   -0.5033    1.2229 C.2       1 <0>        -0.1495
      5 C4          0.2221   -0.9785    2.3854 C.2       1 <0>        -0.1371
      6 C5          1.0908   -1.3857    3.3812 C.2       1 <0>        -0.1349
      7 C6          2.4269   -1.2970    3.1640 C.2       1 <0>        -0.1182
      8 S1          2.4885   -0.6292    1.5095 S.3       1 <0>         0.0951
      9 Cl1         3.7369   -1.7278    4.2186 Cl        1 <0>         0.0204
     10 N1          0.6878   -0.4765   -1.2033 N.am      1 <0>        -0.7309
     11 C7          0.0062   -0.6081   -2.3585 C.2       1 <0>         0.5049
     12 O1         -1.1748   -0.3355   -2.4003 O.2       1 <0>        -0.4925
     13 C8          0.7116   -1.0941   -3.5984 C.3       1 <0>         0.1620
     14 H2          1.4045   -1.8925   -3.3329 H         1 <0>         0.1124
     15 C9          1.4859    0.0636   -4.2316 C.3       1 <0>        -0.1202
     16 C10         2.3011   -0.4561   -5.4174 C.3       1 <0>        -0.0794
     17 S2          3.2191    0.9165   -6.1681 S.3       1 <0>        -0.2584
     18 C11         4.1210    0.1435   -7.5391 C.3       1 <0>        -0.1216
     19 N2         -0.2755   -1.6021   -4.5544 N.am      1 <0>        -0.7361
     20 C12        -1.2385   -0.7860   -5.0264 C.2       1 <0>         0.7107
     21 O2         -1.2881    0.3720   -4.6589 O.2       1 <0>        -0.5611
     22 N3         -2.1466   -1.2533   -5.9059 N.am      1 <0>        -0.8689
     23 H3          1.0039    1.9031    0.0027 H         1 <0>         0.0623
     24 H4         -0.5459    1.8868   -0.8726 H         1 <0>         0.0755
     25 H5         -0.5289    1.8773    0.9072 H         1 <0>         0.0720
     26 H6         -0.8462   -1.0380    2.5322 H         1 <0>         0.1448
     27 H7          0.7115   -1.7680    4.3173 H         1 <0>         0.1453
     28 H8          1.6324   -0.6946   -1.1699 H         1 <0>         0.3984
     29 H9          0.7850    0.8233   -4.5776 H         1 <0>         0.1090
     30 H10         2.1576    0.4991   -3.4919 H         1 <0>         0.0850
     31 H11         3.0020   -1.2158   -5.0714 H         1 <0>         0.0808
     32 H12         1.6293   -0.8916   -6.1572 H         1 <0>         0.0817
     33 H13         4.7103    0.8993   -8.0584 H         1 <0>         0.1031
     34 H14         4.7837   -0.6288   -7.1485 H         1 <0>         0.0764
     35 H15         3.4110   -0.3045   -8.2343 H         1 <0>         0.0756
     36 H16        -0.2359   -2.5259   -4.8476 H         1 <0>         0.4010
     37 H17        -2.1071   -2.1771   -6.1991 H         1 <0>         0.3938
     38 H18        -2.8397   -0.6659   -6.2457 H         1 <0>         0.4157
@<TRIPOS>BOND
     1    1    2 1
     2    1   23 1
     3    1   24 1
     4    1   25 1
     5    2    3 1
     6    2    4 1
     7    2   10 1
     8    4    8 1
     9    4    5 2
    10    5    6 1
    11    5   26 1
    12    6    7 2
    13    6   27 1
    14    7    8 1
    15    7    9 1
    16   10   11 am
    17   10   28 1
    18   11   12 2
    19   11   13 1
    20   13   14 1
    21   13   15 1
    22   13   19 1
    23   15   16 1
    24   15   29 1
    25   15   30 1
    26   16   17 1
    27   16   31 1
    28   16   32 1
    29   17   18 1
    30   18   33 1
    31   18   34 1
    32   18   35 1
    33   19   20 am
    34   19   36 1
    35   20   21 2
    36   20   22 am
    37   22   37 1
    38   22   38 1
@<TRIPOS>MOLECULE
ZINC58835239
   41    41     0     0     0
SMALL
USER_CHARGES

@<TRIPOS>ATOM
      1 C1         -0.0187    1.5258    0.0104 C.3       1 <0>        -0.1549
      2 C2          0.0021   -0.0041    0.0020 C.3       1 <0>        -0.1100
      3 C3          0.7182   -0.4975   -1.2568 C.3       1 <0>        -0.1397
      4 C4          0.7386   -2.0043   -1.2651 C.2       1 <0>         0.5184
      5 O1          0.2305   -2.6227   -0.3539 O.2       1 <0>        -0.5358
      6 N1          1.3217   -2.6648   -2.2851 N.am      1 <0>        -0.7247
      7 C5          1.3415   -4.1296   -2.2931 C.3       1 <0>         0.1114
      8 C6          2.0469   -4.6156   -3.5330 C.2       1 <0>         0.5170
      9 O2          2.4894   -3.8170   -4.3313 O.2       1 <0>        -0.5137
     10 N2          2.1859   -5.9377   -3.7547 N.am      1 <0>        -0.5451
     11 N3          2.8417   -6.3895   -4.9074 N.pl3     1 <0>        -0.4708
     12 C7          2.9808   -7.7116   -5.1291 C.2       1 <0>         0.5591
     13 S1          3.7821   -8.2638   -6.5377 S.2       1 <0>        -0.5762
     14 N4          2.4890   -8.5991   -4.2420 N.pl3     1 <0>        -0.6845
     15 C8          2.6401  -10.0362   -4.4830 C.3       1 <0>         0.1254
     16 C9          1.9990  -10.8163   -3.3335 C.3       1 <0>        -0.0469
     17 C10         2.1545  -12.2946   -3.5814 C.2       1 <0>        -0.1516
     18 C11         3.1567  -13.1235   -3.1993 C.2       1 <0>        -0.1443
     19 C12         3.0879  -14.4608   -3.5419 C.2       1 <0>        -0.1597
     20 C13         2.0204  -14.9039   -4.2500 C.2       1 <0>        -0.1658
     21 S2          1.0628  -13.4102   -4.4478 S.3       1 <0>         0.0445
     22 H1          1.0039    1.9031    0.0027 H         1 <0>         0.0556
     23 H2         -0.5459    1.8868   -0.8726 H         1 <0>         0.0556
     24 H3         -0.5289    1.8773    0.9072 H         1 <0>         0.0596
     25 H4          0.5293   -0.3651    0.8851 H         1 <0>         0.0700
     26 H5         -1.0205   -0.3814    0.0098 H         1 <0>         0.0700
     27 H6          0.1910   -0.1364   -2.1398 H         1 <0>         0.0975
     28 H7          1.7408   -0.1202   -1.2645 H         1 <0>         0.0975
     29 H8          1.7281   -2.1702   -3.0138 H         1 <0>         0.4149
     30 H9          1.8687   -4.4907   -1.4101 H         1 <0>         0.1092
     31 H10         0.3189   -4.5069   -2.2854 H         1 <0>         0.1092
     32 H11         1.8320   -6.5764   -3.1162 H         1 <0>         0.4234
     33 H12         3.1957   -5.7508   -5.5459 H         1 <0>         0.4602
     34 H13         2.0350   -8.2863   -3.4439 H         1 <0>         0.3919
     35 H14         2.1498  -10.3011   -5.4198 H         1 <0>         0.0966
     36 H15         3.6996  -10.2849   -4.5444 H         1 <0>         0.0976
     37 H16         2.4893  -10.5515   -2.3967 H         1 <0>         0.0942
     38 H17         0.9396  -10.5677   -3.2720 H         1 <0>         0.0876
     39 H18         3.9965  -12.7445   -2.6358 H         1 <0>         0.1340
     40 H19         3.8732  -15.1424   -3.2502 H         1 <0>         0.1358
     41 H20         1.8034  -15.9023   -4.6000 H         1 <0>         0.1873
@<TRIPOS>BOND
     1    1    2 1
     2    1   22 1
     3    1   23 1
     4    1   24 1
     5    2    3 1
     6    2   25 1
     7    2   26 1
     8    3    4 1
     9    3   27 1
    10    3   28 1
    11    4    5 2
    12    4    6 am
    13    6    7 1
    14    6   29 1
    15    7    8 1
    16    7   30 1
    17    7   31 1
    18    8    9 2
    19    8   10 am
    20   10   11 1
    21   10   32 1
    22   11   12 1
    23   11   33 1
    24   12   13 2
    25   12   14 1
    26   14   15 1
    27   14   34 1
    28   15   16 1
    29   15   35 1
    30   15   36 1
    31   16   17 1
    32   16   37 1
    33   16   38 1
    34   17   21 1
    35   17   18 2
    36   18   19 1
    37   18   39 1
    38   19   20 2
    39   19   40 1
    40   20   21 1
    41   20   41 1
@<TRIPOS>MOLECULE
ZINC63340388
   40    41     0     0     0
SMALL
USER_CHARGES

@<TRIPOS>ATOM
      1 C1          0.8314    1.6855    0.5518 C.3       1 <0>        -0.0908
      2 C2          0.9540    0.1857    0.6341 C.2       1 <0>         0.1209
      3 C3          0.8911   -0.7080   -0.4487 C.2       1 <0>        -0.2210
      4 C4          1.0433   -1.9596    0.0313 C.2       1 <0>         0.1063
      5 O1          1.1972   -1.8768    1.3618 O.3       1 <0>        -0.0715
      6 N1          1.1425   -0.5080    1.7213 N.2       1 <0>        -0.2935
      7 Cl1         1.0400   -3.4202   -0.9070 Cl        1 <0>         0.0491
      8 C5          0.6884   -0.3334   -1.8943 C.3       1 <0>        -0.0363
      9 C6          2.0479   -0.0985   -2.5557 C.3       1 <0>        -0.1371
     10 C7          1.8452    0.2761   -4.0013 C.2       1 <0>         0.5138
     11 O2          0.7237    0.3481   -4.4576 O.2       1 <0>        -0.5353
     12 N2          2.9100    0.5311   -4.7871 N.am      1 <0>        -0.7270
     13 C8          2.7130    0.8953   -6.1923 C.3       1 <0>         0.1614
     14 C9          4.0520    1.1267   -6.8438 C.ar      1 <0>        -0.0909
     15 C10         4.6178    2.3886   -6.8306 C.ar      1 <0>        -0.1169
     16 C11         5.8461    2.6050   -7.4272 C.ar      1 <0>        -0.0989
     17 C12         6.5122    1.5606   -8.0386 C.ar      1 <0>        -0.1390
     18 C13         5.9469    0.2926   -8.0536 C.ar      1 <0>         0.1631
     19 C14         4.7154    0.0773   -7.4485 C.ar      1 <0>        -0.1014
     20 N3          6.6191   -0.7676   -8.6722 N.am      1 <0>        -0.6866
     21 C15         5.9195   -1.7442   -9.2833 C.2       1 <0>         0.7044
     22 O3          4.7109   -1.6558   -9.3816 O.2       1 <0>        -0.5725
     23 N4          6.5598   -2.8187   -9.7853 N.am      1 <0>        -0.8605
     24 H1          1.8188    2.1232    0.4046 H         1 <0>         0.0946
     25 H2          0.1873    1.9519   -0.2862 H         1 <0>         0.0936
     26 H3          0.3995    2.0661    1.4774 H         1 <0>         0.0876
     27 H4          0.1684   -1.1411   -2.4094 H         1 <0>         0.0889
     28 H5          0.0932    0.5779   -1.9535 H         1 <0>         0.0924
     29 H6          2.5678    0.7092   -2.0406 H         1 <0>         0.0974
     30 H7          2.6430   -1.0097   -2.4965 H         1 <0>         0.0950
     31 H8          3.8069    0.4736   -4.4221 H         1 <0>         0.4021
     32 H9          2.1930    0.0876   -6.7075 H         1 <0>         0.0791
     33 H10         2.1178    1.8065   -6.2515 H         1 <0>         0.0796
     34 H11         4.0989    3.2068   -6.3536 H         1 <0>         0.1262
     35 H12         6.2852    3.5917   -7.4155 H         1 <0>         0.1301
     36 H13         7.4715    1.7303   -8.5048 H         1 <0>         0.1271
     37 H14         4.2753   -0.9090   -7.4543 H         1 <0>         0.1379
     38 H15         7.5885   -0.7995   -8.6612 H         1 <0>         0.4085
     39 H16         7.5240   -2.8892   -9.7068 H         1 <0>         0.3996
     40 H17         6.0563   -3.5215  -10.2251 H         1 <0>         0.4203
@<TRIPOS>BOND
     1    1    2 1
     2    1   24 1
     3    1   25 1
     4    1   26 1
     5    2    6 2
     6    2    3 1
     7    3    4 2
     8    3    8 1
     9    4    5 1
    10    4    7 1
    11    5    6 1
    12    8    9 1
    13    8   27 1
    14    8   28 1
    15    9   10 1
    16    9   29 1
    17    9   30 1
    18   10   11 2
    19   10   12 am
    20   12   13 1
    21   12   31 1
    22   13   14 1
    23   13   32 1
    24   13   33 1
    25   14   19 ar
    26   14   15 ar
    27   15   16 ar
    28   15   34 1
    29   16   17 ar
    30   16   35 1
    31   17   18 ar
    32   17   36 1
    33   18   19 ar
    34   18   20 1
    35   19   37 1
    36   20   21 am
    37   20   38 1
    38   21   22 2
    39   21   23 am
    40   23   39 1
    41   23   40 1
@<TRIPOS>MOLECULE
ZINC66939144
   41    42     0     0     0
SMALL
USER_CHARGES

@<TRIPOS>ATOM
      1 C1         -0.0167    1.3782    0.0096 C.ar      1 <0>        -0.0808
      2 C2          1.1703    2.0860    0.0021 C.ar      1 <0>        -0.1524
      3 C3          2.3786    1.4101   -0.0131 C.ar      1 <0>         0.1092
      4 C4          2.3962    0.0256   -0.0207 C.ar      1 <0>        -0.1513
      5 C5          1.2079   -0.6800   -0.0132 C.ar      1 <0>        -0.0627
      6 C6          0.0021   -0.0041    0.0020 C.ar      1 <0>        -0.1154
      7 C7         -1.2930   -0.7747    0.0103 C.3       1 <0>         0.1181
      8 H1         -2.1023   -0.1287   -0.3300 H         1 <0>         0.0833
      9 C8         -1.5851   -1.2511    1.4098 C.2       1 <0>         0.5227
     10 O1         -1.6889   -2.4379    1.6371 O.2       1 <0>        -0.5130
     11 N1         -1.7311   -0.3583    2.4089 N.am      1 <0>        -0.8556
     12 N2         -1.1798   -1.9320   -0.8873 N.3       1 <0>        -0.6596
     13 C9         -2.5008   -2.3522   -1.3737 C.3       1 <0>         0.0492
     14 C10        -2.3424   -3.5570   -2.3033 C.3       1 <0>         0.1221
     15 N3         -3.6598   -3.9760   -2.7884 N.am      1 <0>        -0.7250
     16 C11        -3.7666   -5.0256   -3.6271 C.2       1 <0>         0.5609
     17 O2         -2.7698   -5.6246   -3.9811 O.2       1 <0>        -0.5277
     18 C12        -5.0955   -5.4482   -4.1164 C.ar      1 <0>        -0.1323
     19 C13        -6.2415   -4.7586   -3.7161 C.ar      1 <0>        -0.0742
     20 C14        -7.4787   -5.1574   -4.1764 C.ar      1 <0>        -0.1176
     21 C15        -7.5859   -6.2400   -5.0337 C.ar      1 <0>        -0.0111
     22 C16        -6.4524   -6.9281   -5.4343 C.ar      1 <0>        -0.1166
     23 C17        -5.2092   -6.5351   -4.9853 C.ar      1 <0>        -0.0455
     24 Cl1        -9.1469   -6.7368   -5.6081 Cl        1 <0>        -0.0584
     25 F1          3.5396    2.1009   -0.0209 F         1 <0>        -0.1358
     26 H2         -0.9592    1.9052    0.0260 H         1 <0>         0.1354
     27 H3          1.1554    3.1659    0.0077 H         1 <0>         0.1401
     28 H4          3.3381   -0.5027   -0.0329 H         1 <0>         0.1405
     29 H5          1.2213   -1.7599   -0.0195 H         1 <0>         0.1457
     30 H6         -1.6481    0.5909    2.2270 H         1 <0>         0.3992
     31 H7         -1.9192   -0.6649    3.3097 H         1 <0>         0.4047
     32 H8         -0.5576   -1.7336   -1.6565 H         1 <0>         0.3554
     33 H9         -3.1293   -2.6270   -0.5266 H         1 <0>         0.0862
     34 H10        -2.9652   -1.5308   -1.9194 H         1 <0>         0.0398
     35 H11        -1.7139   -3.2822   -3.1504 H         1 <0>         0.0706
     36 H12        -1.8781   -4.3784   -1.7577 H         1 <0>         0.0846
     37 H13        -4.4552   -3.4980   -2.5059 H         1 <0>         0.3998
     38 H14        -6.1593   -3.9148   -3.0471 H         1 <0>         0.1351
     39 H15        -8.3660   -4.6247   -3.8675 H         1 <0>         0.1416
     40 H16        -6.5422   -7.7717   -6.1026 H         1 <0>         0.1432
     41 H17        -4.3258   -7.0698   -5.3016 H         1 <0>         0.1477
@<TRIPOS>BOND
     1    1    6 ar
     2    1    2 ar
     3    1   26 1
     4    2    3 ar
     5    2   27 1
     6    3    4 ar
     7    3   25 1
     8    4    5 ar
     9    4   28 1
    10    5    6 ar
    11    5   29 1
    12    6    7 1
    13    7    8 1
    14    7    9 1
    15    7   12 1
    16    9   10 2
    17    9   11 am
    18   11   30 1
    19   11   31 1
    20   12   13 1
    21   12   32 1
    22   13   14 1
    23   13   33 1
    24   13   34 1
    25   14   15 1
    26   14   35 1
    27   14   36 1
    28   15   16 am
    29   15   37 1
    30   16   17 2
    31   16   18 1
    32   18   23 ar
    33   18   19 ar
    34   19   20 ar
    35   19   38 1
    36   20   21 ar
    37   20   39 1
    38   21   22 ar
    39   21   24 1
    40   22   23 ar
    41   22   40 1
    42   23   41 1
@<TRIPOS>MOLECULE
ZINC28615765
   45    46     0     0     0
SMALL
USER_CHARGES
N-[2-[N'-[(2,3-dimethylphenyl)carbamothioyl]hydrazino]-2-oxo-ethyl]-5-methyl-thiophene-2-carboxamide
@<TRIPOS>ATOM
      1 C1          0.1869   10.5911    1.1729 C.3       1 <0>        -0.1145
      2 C2         -0.7605    9.5794    1.7644 C.ar      1 <0>        -0.0824
      3 C3         -1.8644   10.0036    2.4817 C.ar      1 <0>        -0.1077
      4 C4         -2.7360    9.0787    3.0260 C.ar      1 <0>        -0.1118
      5 C5         -2.5071    7.7273    2.8545 C.ar      1 <0>        -0.0744
      6 C6         -1.4000    7.2981    2.1345 C.ar      1 <0>         0.1306
      7 C7         -0.5231    8.2298    1.5938 C.ar      1 <0>        -0.0886
      8 C8          0.6833    7.7684    0.8174 C.3       1 <0>        -0.1136
      9 N1         -1.1652    5.9303    1.9589 N.pl3     1 <0>        -0.6405
     10 C9         -1.2975    5.0847    3.0001 C.2       1 <0>         0.5618
     11 S1         -1.6146    5.6987    4.5665 S.2       1 <0>        -0.5769
     12 N2         -1.1801    3.7559    2.8082 N.pl3     1 <0>        -0.4756
     13 N3         -0.9206    3.2535    1.5264 N.am      1 <0>        -0.5545
     14 C10        -0.8032    1.9246    1.3344 C.2       1 <0>         0.5217
     15 O1         -0.9222    1.1637    2.2714 O.2       1 <0>        -0.5205
     16 C11        -0.5241    1.3842   -0.0444 C.3       1 <0>         0.1143
     17 N4         -0.4425   -0.0775    0.0113 N.am      1 <0>        -0.7300
     18 C12        -0.1986   -0.7821   -1.1114 C.2       1 <0>         0.6152
     19 O2         -0.0462   -0.2040   -2.1715 O.2       1 <0>        -0.5285
     20 C13        -0.1169   -2.2445   -1.0557 C.2       1 <0>        -0.2511
     21 C14         0.1220   -3.1460   -2.0812 C.2       1 <0>        -0.0575
     22 C15         0.1464   -4.4778   -1.7498 C.2       1 <0>        -0.1891
     23 C16        -0.0605   -4.8438   -0.4576 C.2       1 <0>        -0.1402
     24 S2         -0.2913   -3.3278    0.3511 S.3       1 <0>         0.1420
     25 C17        -0.0783   -6.2310    0.1310 C.3       1 <0>        -0.0809
     26 H1         -0.1644   11.6058    1.4116 H         1 <0>         0.0676
     27 H2          0.2246   10.4635    0.0810 H         1 <0>         0.0695
     28 H3          1.1920   10.4424    1.5944 H         1 <0>         0.0700
     29 H4         -2.0456   11.0596    2.6172 H         1 <0>         0.1250
     30 H5         -3.5971    9.4131    3.5856 H         1 <0>         0.1284
     31 H6         -3.1885    7.0053    3.2797 H         1 <0>         0.1378
     32 H7          0.7028    6.6689    0.7894 H         1 <0>         0.0522
     33 H8          1.5969    8.1390    1.3051 H         1 <0>         0.0770
     34 H9          0.6307    8.1605   -0.2090 H         1 <0>         0.0752
     35 H10        -0.8726    5.5449    0.9711 H         1 <0>         0.4142
     36 H11        -1.2880    3.0658    3.6580 H         1 <0>         0.4920
     37 H12        -0.8127    3.9436    0.6766 H         1 <0>         0.4425
     38 H13        -1.3355    1.6805   -0.7255 H         1 <0>         0.1109
     39 H14         0.4297    1.7910   -0.4115 H         1 <0>         0.1108
     40 H15        -0.5803   -0.5999    0.9695 H         1 <0>         0.4368
     41 H16         0.2815   -2.8149   -3.0967 H         1 <0>         0.1479
     42 H17         0.3277   -5.2260   -2.5072 H         1 <0>         0.1415
     43 H18        -0.2744   -6.1683    1.2116 H         1 <0>         0.0773
     44 H19         0.8959   -6.7133   -0.0375 H         1 <0>         0.0878
     45 H20        -0.8693   -6.8239   -0.3515 H         1 <0>         0.0879
@<TRIPOS>BOND
     1    1    2 1
     2    1   26 1
     3    1   27 1
     4    1   28 1
     5    2    7 ar
     6    2    3 ar
     7    3    4 ar
     8    3   29 1
     9    4    5 ar
    10    4   30 1
    11    5    6 ar
    12    5   31 1
    13    6    7 ar
    14    6    9 1
    15    7    8 1
    16    8   32 1
    17    8   33 1
    18    8   34 1
    19    9   10 1
    20    9   35 1
    21   10   11 2
    22   10   12 1
    23   12   13 1
    24   12   36 1
    25   13   14 am
    26   13   37 1
    27   14   15 2
    28   14   16 1
    29   16   17 1
    30   16   38 1
    31   16   39 1
    32   17   18 am
    33   17   40 1
    34   18   19 2
    35   18   20 1
    36   20   24 1
    37   20   21 2
    38   21   22 1
    39   21   41 1
    40   22   23 2
    41   22   42 1
    42   23   24 1
    43   23   25 1
    44   25   43 1
    45   25   44 1
    46   25   45 1
@<TRIPOS>MOLECULE
ZINC49117075
   37    37     0     0     0
SMALL
USER_CHARGES

@<TRIPOS>ATOM
      1 C1         -0.0187    1.5258    0.0104 C.3       1 <0>        -0.1536
      2 C2          0.0021   -0.0041    0.0020 C.3       1 <0>        -0.1151
      3 C3          0.7182   -0.4975   -1.2568 C.3       1 <0>        -0.1266
      4 C4          0.7390   -2.0273   -1.2652 C.3       1 <0>         0.1484
      5 H1         -0.2789   -2.4050   -1.1679 H         1 <0>         0.1174
      6 C5          1.3339   -2.5145   -2.5613 C.2       1 <0>         0.5165
      7 O1          2.3354   -3.1983   -2.5496 O.2       1 <0>        -0.5304
      8 N1          0.7529   -2.1903   -3.7334 N.am      1 <0>        -0.7173
      9 C6          1.3312   -2.6639   -4.9933 C.3       1 <0>         0.1545
     10 C7          0.4984   -2.1665   -6.1466 C.ar      1 <0>        -0.0557
     11 C8         -0.4240   -3.0042   -6.7446 C.ar      1 <0>        -0.1291
     12 C9         -1.1889   -2.5470   -7.8041 C.ar      1 <0>         0.1181
     13 C10        -1.0292   -1.2506   -8.2639 C.ar      1 <0>        -0.1389
     14 C11        -0.1067   -0.4143   -7.6652 C.ar      1 <0>        -0.0601
     15 C12         0.6534   -0.8700   -6.6028 C.ar      1 <0>        -0.0929
     16 Br1         1.9099    0.2779   -5.7785 Br        1 <0>        -0.0279
     17 F1         -2.0905   -3.3655   -8.3894 F         1 <0>        -0.1290
     18 N2          1.5485   -2.5109   -0.1440 N.am      1 <0>        -0.7285
     19 C13         0.9933   -2.6539    1.0757 C.2       1 <0>         0.7096
     20 O2         -0.1794   -2.3815    1.2456 O.2       1 <0>        -0.5879
     21 N3          1.7381   -3.0987    2.1072 N.am      1 <0>        -0.8656
     22 H2          1.0039    1.9031    0.0027 H         1 <0>         0.0499
     23 H3         -0.5459    1.8868   -0.8726 H         1 <0>         0.0524
     24 H4         -0.5289    1.8773    0.9072 H         1 <0>         0.0546
     25 H5          0.5293   -0.3651    0.8851 H         1 <0>         0.0676
     26 H6         -1.0205   -0.3814    0.0098 H         1 <0>         0.0704
     27 H7          0.1910   -0.1364   -2.1398 H         1 <0>         0.0758
     28 H8          1.7408   -0.1202   -1.2645 H         1 <0>         0.0708
     29 H9         -0.0482   -1.6434   -3.7427 H         1 <0>         0.4053
     30 H10         2.3490   -2.2862   -5.0906 H         1 <0>         0.0928
     31 H11         1.3460   -3.7538   -4.9993 H         1 <0>         0.0875
     32 H12        -0.5478   -4.0152   -6.3857 H         1 <0>         0.1488
     33 H13        -1.6254   -0.8935   -9.0906 H         1 <0>         0.1488
     34 H14         0.0180    0.5968   -8.0237 H         1 <0>         0.1476
     35 H15         2.4841   -2.7282   -0.2796 H         1 <0>         0.4063
     36 H16         2.6737   -3.3160    1.9716 H         1 <0>         0.3984
     37 H17         1.3385   -3.2016    2.9850 H         1 <0>         0.4169
@<TRIPOS>BOND
     1    1    2 1
     2    1   22 1
     3    1   23 1
     4    1   24 1
     5    2    3 1
     6    2   25 1
     7    2   26 1
     8    3    4 1
     9    3   27 1
    10    3   28 1
    11    4    5 1
    12    4    6 1
    13    4   18 1
    14    6    7 2
    15    6    8 am
    16    8    9 1
    17    8   29 1
    18    9   10 1
    19    9   30 1
    20    9   31 1
    21   10   15 ar
    22   10   11 ar
    23   11   12 ar
    24   11   32 1
    25   12   13 ar
    26   12   17 1
    27   13   14 ar
    28   13   33 1
    29   14   15 ar
    30   14   34 1
    31   15   16 1
    32   18   19 am
    33   18   35 1
    34   19   20 2
    35   19   21 am
    36   21   36 1
    37   21   37 1
@<TRIPOS>MOLECULE
ZINC08829795
   45    46     0     0     0
SMALL
USER_CHARGES

@<TRIPOS>ATOM
      1 C1         -1.1041    1.4962    0.2944 C.3       1 <0>        -0.1176
      2 C2         -1.4052    0.0459    0.5718 C.ar      1 <0>        -0.0565
      3 C3         -2.5452   -0.5355    0.0473 C.ar      1 <0>        -0.1397
      4 C4         -2.8251   -1.8659    0.2994 C.ar      1 <0>        -0.0862
      5 C5         -1.9662   -2.6186    1.0765 C.ar      1 <0>        -0.1437
      6 C6         -0.8208   -2.0379    1.6046 C.ar      1 <0>         0.1831
      7 C7         -0.5396   -0.7026    1.3447 C.ar      1 <0>        -0.1223
      8 C8          0.7055   -0.0699    1.9107 C.3       1 <0>        -0.1156
      9 N1          0.0508   -2.7973    2.3923 N.pl3     1 <0>        -0.6779
     10 C9         -0.0343   -4.1628    2.3849 C.cat     1 <0>         0.5280
     11 N2         -0.1229   -4.8482    3.5638 N.pl3     1 <0>        -0.6766
     12 C10        -0.2141   -6.3103    3.5559 C.3       1 <0>         0.1230
     13 C11        -0.3019   -6.8236    4.9946 C.3       1 <0>        -0.1035
     14 C12        -0.3957   -8.3276    4.9865 C.ar      1 <0>        -0.0234
     15 C13        -1.6324   -8.9427    4.9309 C.ar      1 <0>        -0.1323
     16 C14        -1.7185  -10.3224    4.9235 C.ar      1 <0>        -0.0141
     17 C15        -0.5679  -11.0869    4.9712 C.ar      1 <0>        -0.6747
     18 C16         0.6689  -10.4719    5.0259 C.ar      1 <0>        -0.0143
     19 C17         0.7552   -9.0922    5.0290 C.ar      1 <0>        -0.1327
     20 S1         -0.6776  -12.8455    4.9629 S.o2      1 <0>         2.7010
     21 O1          0.5153  -13.3297    5.5644 O.2       1 <0>        -0.9622
     22 O2         -1.9683  -13.1742    5.4583 O.2       1 <0>        -0.9621
     23 N3         -0.6404  -13.3309    3.3801 N.pl3     1 <0>        -1.2494
     24 S2         -0.0302   -4.9869    0.9440 S.3       1 <0>        -0.5031
     25 H1         -0.5109    1.5764   -0.6165 H         1 <0>         0.0736
     26 H2         -2.0383    2.0437    0.1690 H         1 <0>         0.0690
     27 H3         -0.5454    1.9176    1.1301 H         1 <0>         0.0685
     28 H4         -3.2185    0.0510   -0.5602 H         1 <0>         0.1242
     29 H5         -3.7163   -2.3168   -0.1113 H         1 <0>         0.1267
     30 H6         -2.1856   -3.6576    1.2734 H         1 <0>         0.1264
     31 H7          0.4851    0.3521    2.8912 H         1 <0>         0.0692
     32 H8          1.4853   -0.8254    2.0073 H         1 <0>         0.0600
     33 H9          1.0468    0.7212    1.2430 H         1 <0>         0.0769
     34 H10        -0.1253   -4.3666    4.4058 H         1 <0>         0.3989
     35 H11        -1.1043   -6.6159    3.0062 H         1 <0>         0.0948
     36 H12         0.6708   -6.7270    3.0749 H         1 <0>         0.0934
     37 H13         0.5884   -6.5180    5.5443 H         1 <0>         0.0879
     38 H14        -1.1868   -6.4069    5.4756 H         1 <0>         0.0887
     39 H15        -2.5314   -8.3454    4.8936 H         1 <0>         0.1363
     40 H16        -2.6848  -10.8029    4.8807 H         1 <0>         0.1460
     41 H17         1.5679  -11.0692    5.0635 H         1 <0>         0.1458
     42 H18         1.7216   -8.6117    5.0680 H         1 <0>         0.1359
     43 H19        -0.5689  -12.6717    2.6722 H         1 <0>         0.4175
     44 H20        -0.6902  -14.2745    3.1609 H         1 <0>         0.4221
     45 H21         0.7156   -2.3558    2.9436 H         1 <0>         0.4110
@<TRIPOS>BOND
     1    1    2 1
     2    1   25 1
     3    1   26 1
     4    1   27 1
     5    2    7 ar
     6    2    3 ar
     7    3    4 ar
     8    3   28 1
     9    4    5 ar
    10    4   29 1
    11    5    6 ar
    12    5   30 1
    13    6    7 ar
    14    6    9 1
    15    7    8 1
    16    8   31 1
    17    8   32 1
    18    8   33 1
    19    9   10 1
    20    9   45 1
    21   10   11 2
    22   10   24 1
    23   11   12 1
    24   11   34 1
    25   12   13 1
    26   12   35 1
    27   12   36 1
    28   13   14 1
    29   13   37 1
    30   13   38 1
    31   14   19 ar
    32   14   15 ar
    33   15   16 ar
    34   15   39 1
    35   16   17 ar
    36   16   40 1
    37   17   18 ar
    38   17   20 1
    39   18   19 ar
    40   18   41 1
    41   19   42 1
    42   20   21 2
    43   20   22 2
    44   20   23 1
    45   23   43 1
    46   23   44 1
@<TRIPOS>MOLECULE
ZINC66387888
   41    42     0     0     0
SMALL
USER_CHARGES

@<TRIPOS>ATOM
      1 C1         -0.0167    1.3784    0.0096 C.ar      1 <0>        -0.0289
      2 C2          1.1695    2.0865    0.0021 C.ar      1 <0>        -0.1506
      3 C3          2.3802    1.4093   -0.0131 C.ar      1 <0>         0.1621
      4 C4          2.3963    0.0221   -0.0206 C.ar      1 <0>        -0.2127
      5 C5          1.2074   -0.6814   -0.0130 C.ar      1 <0>        -0.0273
      6 C6          0.0021   -0.0041    0.0020 C.ar      1 <0>        -0.2227
      7 C7         -1.2934   -0.7740    0.0107 C.3       1 <0>         0.5117
      8 F1         -1.7073   -1.0052   -1.3055 F         1 <0>        -0.1768
      9 F2         -1.1042   -1.9977    0.6618 F         1 <0>        -0.1778
     10 F3         -2.2712   -0.0338    0.6839 F         1 <0>        -0.1769
     11 O1          3.5484    2.1036   -0.0209 O.3       1 <0>        -0.2960
     12 C8          4.7565    1.3405   -0.0365 C.3       1 <0>         0.0278
     13 C9          5.9580    2.2878   -0.0434 C.3       1 <0>         0.0966
     14 H1          5.8702    2.9798   -0.8810 H         1 <0>         0.1196
     15 C10         7.2468    1.4757   -0.1857 C.3       1 <0>         0.0997
     16 N1          8.3973    2.3828   -0.1924 N.pl3     1 <0>        -0.7000
     17 C11         9.6799    1.8737   -0.3119 C.ar      1 <0>         0.4408
     18 C12        10.7689    2.7455   -0.3114 C.ar      1 <0>        -0.1621
     19 C13        12.0352    2.2381   -0.4294 C.ar      1 <0>         0.0373
     20 C14        12.1910    0.8481   -0.5473 C.ar      1 <0>        -0.2469
     21 C15        11.0564    0.0359   -0.5404 C.ar      1 <0>         0.1960
     22 N2          9.8560    0.5641   -0.4198 N.ar      1 <0>        -0.5318
     23 C16        13.5354    0.2543   -0.6774 C.2       1 <0>         0.5761
     24 O2         14.5183    0.9701   -0.6828 O.2       1 <0>        -0.5390
     25 N3         13.6740   -1.0816   -0.7901 N.am      1 <0>        -0.8509
     26 Cl1        10.5210    4.4573   -0.1632 Cl        1 <0>        -0.0463
     27 O3          5.9914    3.0237    1.1811 O.3       1 <0>        -0.5453
     28 H2         -0.9594    1.9052    0.0259 H         1 <0>         0.1446
     29 H3          1.1543    3.1664    0.0076 H         1 <0>         0.1451
     30 H4          3.3375   -0.5074   -0.0328 H         1 <0>         0.1395
     31 H5          1.2194   -1.7613   -0.0189 H         1 <0>         0.1399
     32 H6          4.7979    0.7076    0.8500 H         1 <0>         0.0753
     33 H7          4.7806    0.7165   -0.9299 H         1 <0>         0.0810
     34 H8          7.3346    0.7837    0.6518 H         1 <0>         0.0794
     35 H9          7.2213    0.9144   -1.1197 H         1 <0>         0.0856
     36 H10         8.2608    3.3398   -0.1130 H         1 <0>         0.4205
     37 H11        12.8944    2.8924   -0.4319 H         1 <0>         0.1580
     38 H12        11.1637   -1.0349   -0.6305 H         1 <0>         0.1671
     39 H13        12.8899   -1.6526   -0.7857 H         1 <0>         0.3998
     40 H14        14.5579   -1.4719   -0.8755 H         1 <0>         0.4087
     41 H15         6.0687    2.4705    1.9704 H         1 <0>         0.3798
@<TRIPOS>BOND
     1    1    6 ar
     2    1    2 ar
     3    1   28 1
     4    2    3 ar
     5    2   29 1
     6    3    4 ar
     7    3   11 1
     8    4    5 ar
     9    4   30 1
    10    5    6 ar
    11    5   31 1
    12    6    7 1
    13    7    8 1
    14    7    9 1
    15    7   10 1
    16   11   12 1
    17   12   13 1
    18   12   32 1
    19   12   33 1
    20   13   14 1
    21   13   15 1
    22   13   27 1
    23   15   16 1
    24   15   34 1
    25   15   35 1
    26   16   17 1
    27   16   36 1
    28   17   22 ar
    29   17   18 ar
    30   18   19 ar
    31   18   26 1
    32   19   20 ar
    33   19   37 1
    34   20   21 ar
    35   20   23 1
    36   21   22 ar
    37   21   38 1
    38   23   24 2
    39   23   25 am
    40   25   39 1
    41   25   40 1
    42   27   41 1
@<TRIPOS>MOLECULE
ZINC67263074
   42    43     0     0     0
SMALL
USER_CHARGES

@<TRIPOS>ATOM
      1 C1          1.0836   -0.4600    0.7498 C.ar      1 <0>        -0.0769
      2 C2          2.2727    0.2424    0.7378 C.ar      1 <0>        -0.1221
      3 C3          2.3807    1.4093   -0.0073 C.ar      1 <0>         0.1554
      4 C4          1.2919    1.8662   -0.7382 C.ar      1 <0>        -0.1460
      5 C5          0.1055    1.1593   -0.7220 C.ar      1 <0>        -0.0779
      6 C6          0.0012   -0.0023    0.0210 C.ar      1 <0>        -0.1245
      7 C7         -1.2948   -0.7712    0.0364 C.3       1 <0>         0.1807
      8 N1         -2.1379   -0.2852    1.1314 N.am      1 <0>        -0.7420
      9 C8         -3.3530   -0.8301    1.3393 C.2       1 <0>         0.7042
     10 O1         -3.7493   -1.7251    0.6181 O.2       1 <0>        -0.5933
     11 N2         -4.1286   -0.3830    2.3468 N.am      1 <0>        -0.8678
     12 N3          3.5839    2.1235   -0.0212 N.am      1 <0>        -0.6720
     13 C9          4.7580    1.4674    0.0659 C.2       1 <0>         0.5311
     14 O2          4.7770    0.2547    0.0598 O.2       1 <0>        -0.4908
     15 C10         6.0473    2.2406    0.1708 C.3       1 <0>        -0.1366
     16 S1          7.4402    1.0829    0.2717 S.3       1 <0>        -0.1624
     17 C11         8.8964    2.1579    0.3914 C.3       1 <0>        -0.0668
     18 C12        10.1397    1.3111    0.4826 C.ar      1 <0>        -0.0719
     19 C13        10.6139    0.9107    1.7179 C.ar      1 <0>        -0.0870
     20 C14        11.7541    0.1341    1.8022 C.ar      1 <0>        -0.1099
     21 C15        12.4209   -0.2426    0.6500 C.ar      1 <0>        -0.0281
     22 C16        11.9459    0.1584   -0.5860 C.ar      1 <0>        -0.1098
     23 C17        10.8024    0.9303   -0.6693 C.ar      1 <0>        -0.0869
     24 Cl1        13.8534   -1.2175    0.7551 Cl        1 <0>        -0.0656
     25 H1          1.0004   -1.3700    1.3254 H         1 <0>         0.1296
     26 H2          3.1176   -0.1154    1.3075 H         1 <0>         0.1370
     27 H3          1.3726    2.7736   -1.3183 H         1 <0>         0.1288
     28 H4         -0.7418    1.5143   -1.2899 H         1 <0>         0.1301
     29 H5         -1.8131   -0.6287   -0.9119 H         1 <0>         0.0766
     30 H6         -1.0867   -1.8313    0.1810 H         1 <0>         0.0768
     31 H7         -1.8217    0.4288    1.7069 H         1 <0>         0.3976
     32 H8         -3.8124    0.3310    2.9222 H         1 <0>         0.3968
     33 H9         -5.0031   -0.7752    2.4964 H         1 <0>         0.4159
     34 H10         3.5730    3.0907   -0.0935 H         1 <0>         0.4133
     35 H11         6.1639    2.8736   -0.7089 H         1 <0>         0.1149
     36 H12         6.0262    2.8626    1.0657 H         1 <0>         0.1159
     37 H13         8.9532    2.7926   -0.4929 H         1 <0>         0.0945
     38 H14         8.8155    2.7815    1.2817 H         1 <0>         0.0945
     39 H15        10.0934    1.2052    2.6173 H         1 <0>         0.1352
     40 H16        12.1246   -0.1783    2.7673 H         1 <0>         0.1370
     41 H17        12.4662   -0.1351   -1.4857 H         1 <0>         0.1371
     42 H18        10.4288    1.2394   -1.6343 H         1 <0>         0.1352
@<TRIPOS>BOND
     1    1    6 ar
     2    1    2 ar
     3    1   25 1
     4    2    3 ar
     5    2   26 1
     6    3    4 ar
     7    3   12 1
     8    4    5 ar
     9    4   27 1
    10    5    6 ar
    11    5   28 1
    12    6    7 1
    13    7    8 1
    14    7   29 1
    15    7   30 1
    16    8    9 am
    17    8   31 1
    18    9   10 2
    19    9   11 am
    20   11   32 1
    21   11   33 1
    22   12   13 am
    23   12   34 1
    24   13   14 2
    25   13   15 1
    26   15   16 1
    27   15   35 1
    28   15   36 1
    29   16   17 1
    30   17   18 1
    31   17   37 1
    32   17   38 1
    33   18   23 ar
    34   18   19 ar
    35   19   20 ar
    36   19   39 1
    37   20   21 ar
    38   20   40 1
    39   21   22 ar
    40   21   24 1
    41   22   23 ar
    42   22   41 1
    43   23   42 1
@<TRIPOS>MOLECULE
ZINC35354615
   33    34     0     0     0
SMALL
USER_CHARGES

@<TRIPOS>ATOM
      1 C1         -0.2111    1.1694    0.2713 C.ar      1 <0>        -0.0202
      2 C2          0.0290    0.1707   -0.6549 C.ar      1 <0>        -0.1915
      3 C3          1.2777   -0.4178   -0.7338 C.ar      1 <0>         0.0201
      4 C4          2.2900   -0.0094    0.1125 C.ar      1 <0>        -0.7498
      5 C5          2.0525    0.9936    1.0435 C.ar      1 <0>         0.3136
      6 C6          0.7965    1.5824    1.1204 C.ar      1 <0>        -0.1990
      7 N1          3.0740    1.4089    1.9008 N.pl3     1 <0>        -0.5916
      8 N2          2.8127    2.3226    2.8821 N.3       1 <0>        -0.6011
      9 S1          3.8808   -0.7604    0.0115 S.o2      1 <0>         2.6949
     10 O1          3.7912   -1.7690   -0.9854 O.2       1 <0>        -0.9487
     11 O2          4.8260    0.2984   -0.0587 O.2       1 <0>        -0.9598
     12 N3          4.1472   -1.5381    1.4490 N.pl3     1 <0>        -1.1160
     13 C7          3.3069   -2.6749    1.8336 C.3       1 <0>         0.1721
     14 C8          3.9688   -3.4319    2.9560 C.ar      1 <0>         0.1120
     15 C9          3.6184   -3.1578    4.2647 C.ar      1 <0>        -0.1573
     16 C10         4.2333   -3.8598    5.2898 C.ar      1 <0>        -0.0753
     17 C11         5.1819   -4.8156    4.9588 C.ar      1 <0>        -0.1649
     18 C12         5.4807   -5.0350    3.6277 C.ar      1 <0>         0.1024
     19 N4          4.8716   -4.3518    2.6781 N.ar      1 <0>        -0.4663
     20 H1         -1.1864    1.6298    0.3275 H         1 <0>         0.1313
     21 H2         -0.7608   -0.1505   -1.3178 H         1 <0>         0.1312
     22 H3          1.4616   -1.1979   -1.4577 H         1 <0>         0.1442
     23 H4          0.6085    2.3625    1.8432 H         1 <0>         0.1371
     24 H5          3.9688    1.0486    1.7993 H         1 <0>         0.4032
     25 H6          2.0636    2.0070    3.4798 H         1 <0>         0.3399
     26 H7          3.6430    2.5241    3.4188 H         1 <0>         0.3645
     27 H8          4.8596   -1.2410    2.0365 H         1 <0>         0.4158
     28 H9          2.3338   -2.3119    2.1644 H         1 <0>         0.0837
     29 H10         3.1760   -3.3361    0.9770 H         1 <0>         0.1024
     30 H11         2.8753   -2.4059    4.4858 H         1 <0>         0.1358
     31 H12         3.9798   -3.6666    6.3218 H         1 <0>         0.1377
     32 H13         5.6811   -5.3811    5.7317 H         1 <0>         0.1389
     33 H14         6.2183   -5.7776    3.3616 H         1 <0>         0.1609
@<TRIPOS>BOND
     1    1    6 ar
     2    1    2 ar
     3    1   20 1
     4    2    3 ar
     5    2   21 1
     6    3    4 ar
     7    3   22 1
     8    4    5 ar
     9    4    9 1
    10    5    6 ar
    11    5    7 1
    12    6   23 1
    13    7    8 1
    14    7   24 1
    15    8   25 1
    16    8   26 1
    17    9   10 2
    18    9   11 2
    19    9   12 1
    20   12   13 1
    21   12   27 1
    22   13   14 1
    23   13   28 1
    24   13   29 1
    25   14   19 ar
    26   14   15 ar
    27   15   16 ar
    28   15   30 1
    29   16   17 ar
    30   16   31 1
    31   17   18 ar
    32   17   32 1
    33   18   19 ar
    34   18   33 1
@<TRIPOS>MOLECULE
ZINC39328328
   34    35     0     0     0
SMALL
USER_CHARGES

@<TRIPOS>ATOM
      1 C1         -0.0184    1.5028    0.0103 C.3       1 <0>        -0.1086
      2 C2          0.0021   -0.0041    0.0020 C.ar      1 <0>         0.1510
      3 C3          0.0054   -0.6757   -1.2188 C.ar      1 <0>        -0.1562
      4 C4          0.0238   -2.0411   -1.2451 C.ar      1 <0>        -0.0639
      5 C5          0.0391   -2.7289   -0.0169 C.ar      1 <0>        -0.0745
      6 C6          0.0590   -4.1323    0.0347 C.ar      1 <0>        -0.1282
      7 C7          0.0738   -4.7635    1.2413 C.ar      1 <0>        -0.0785
      8 C8          0.0695   -4.0371    2.4292 C.ar      1 <0>        -0.2104
      9 C9          0.0503   -2.6716    2.4188 C.ar      1 <0>         0.1571
     10 C10         0.0347   -1.9835    1.1873 C.ar      1 <0>         0.1183
     11 N1          0.0217   -0.6483    1.1434 N.ar      1 <0>        -0.4517
     12 O1          0.0460   -1.9798    3.5879 O.3       1 <0>        -0.2653
     13 C11         0.0621   -2.7450    4.7946 C.3       1 <0>         0.0487
     14 C12         0.0545   -1.8141    5.9798 C.2       1 <0>         0.5211
     15 O2          0.0369   -0.6137    5.8079 O.2       1 <0>        -0.4834
     16 N2          0.0671   -2.3157    7.2307 N.am      1 <0>        -0.5494
     17 N3          0.0600   -1.4503    8.3324 N.pl3     1 <0>        -0.4649
     18 C13         0.0727   -1.9519    9.5833 C.2       1 <0>         0.5712
     19 S1          0.0640   -0.8944   10.9297 S.2       1 <0>        -0.5815
     20 N4          0.0922   -3.2859    9.7743 N.pl3     1 <0>        -0.8027
     21 H1          1.0042    1.8801    0.0026 H         1 <0>         0.0823
     22 H2         -0.5455    1.8639   -0.8728 H         1 <0>         0.0783
     23 H3         -0.5286    1.8543    0.9071 H         1 <0>         0.0810
     24 H4         -0.0070   -0.1173   -2.1431 H         1 <0>         0.1415
     25 H5          0.0263   -2.5781   -2.1821 H         1 <0>         0.1449
     26 H6          0.0622   -4.7085   -0.8787 H         1 <0>         0.1340
     27 H7          0.0887   -5.8428    1.2773 H         1 <0>         0.1325
     28 H8          0.0811   -4.5616    3.3732 H         1 <0>         0.1343
     29 H9         -0.8188   -3.3858    4.8303 H         1 <0>         0.1050
     30 H10         0.9609   -3.3610    4.8222 H         1 <0>         0.1050
     31 H11         0.0812   -3.2758    7.3681 H         1 <0>         0.4220
     32 H12         0.0460   -0.4902    8.1950 H         1 <0>         0.4618
     33 H13         0.0971   -3.8850    9.0115 H         1 <0>         0.3902
     34 H14         0.1013   -3.6469   10.6746 H         1 <0>         0.4393
@<TRIPOS>BOND
     1    1    2 1
     2    1   21 1
     3    1   22 1
     4    1   23 1
     5    2   11 ar
     6    2    3 ar
     7    3    4 ar
     8    3   24 1
     9    4    5 ar
    10    4   25 1
    11    5   10 ar
    12    5    6 ar
    13    6    7 ar
    14    6   26 1
    15    7    8 ar
    16    7   27 1
    17    8    9 ar
    18    8   28 1
    19    9   10 ar
    20    9   12 1
    21   10   11 ar
    22   12   13 1
    23   13   14 1
    24   13   29 1
    25   13   30 1
    26   14   15 2
    27   14   16 am
    28   16   17 1
    29   16   31 1
    30   17   18 1
    31   17   32 1
    32   18   19 2
    33   18   20 1
    34   20   33 1
    35   20   34 1
@<TRIPOS>MOLECULE
ZINC43481024
   31    31     0     0     0
SMALL
USER_CHARGES

@<TRIPOS>ATOM
      1 C1          0.0180   -1.1779   -0.0044 C.1       1 <0>        -0.1621
      2 C2          0.0021   -0.0041    0.0020 C.1       1 <0>        -0.2158
      3 C3         -0.0179    1.4678    0.0101 C.3       1 <0>         0.2499
      4 N1          1.3565    1.9749   -0.0003 N.am      1 <0>        -0.7442
      5 C4          1.5848    3.3031    0.0047 C.2       1 <0>         0.7074
      6 O1          0.6500    4.0806    0.0178 O.2       1 <0>        -0.5830
      7 N2          2.8492    3.7696   -0.0049 N.am      1 <0>        -0.7464
      8 C5          3.0973    5.2135    0.0005 C.3       1 <0>         0.1415
      9 C6          4.6053    5.4718   -0.0125 C.3       1 <0>        -0.0567
     10 C7          4.8605    6.9571   -0.0070 C.2       1 <0>        -0.0989
     11 C8          5.0207    7.7917    1.0490 C.2       1 <0>        -0.1882
     12 C9          5.2484    9.1346    0.8134 C.2       1 <0>         0.0046
     13 C10         5.3049    9.5771   -0.4665 C.2       1 <0>        -0.7705
     14 S1          5.0383    8.0724   -1.3896 S.3       1 <0>         0.1822
     15 S2          5.5774   11.2121   -1.0643 S.o2      1 <0>         2.7390
     16 O2          5.0081   11.2691   -2.3650 O.2       1 <0>        -0.9543
     17 O3          5.1867   12.0958   -0.0224 O.2       1 <0>        -0.9538
     18 N3          7.2119   11.3978   -1.2545 N.pl3     1 <0>        -1.2484
     19 H1          0.0322   -2.2278   -0.0102 H         1 <0>         0.2231
     20 H2         -0.5451    1.8289   -0.8729 H         1 <0>         0.0929
     21 H3         -0.5281    1.8193    0.9069 H         1 <0>         0.0928
     22 H4          2.1022    1.3546   -0.0107 H         1 <0>         0.4002
     23 H5          3.5949    3.1494   -0.0154 H         1 <0>         0.3987
     24 H6          2.6440    5.6633   -0.8828 H         1 <0>         0.0749
     25 H7          2.6610    5.6538    0.8970 H         1 <0>         0.0764
     26 H8          5.0586    5.0220    0.8708 H         1 <0>         0.1028
     27 H9          5.0417    5.0315   -0.9091 H         1 <0>         0.0950
     28 H10         4.9707    7.4132    2.0592 H         1 <0>         0.1478
     29 H11         5.3790    9.8210    1.6369 H         1 <0>         0.1522
     30 H12         7.8112   10.6654   -1.0417 H         1 <0>         0.4175
     31 H13         7.5700   12.2390   -1.5786 H         1 <0>         0.4234
@<TRIPOS>BOND
     1    1    2 3
     2    1   19 1
     3    2    3 1
     4    3    4 1
     5    3   20 1
     6    3   21 1
     7    4    5 am
     8    4   22 1
     9    5    6 2
    10    5    7 am
    11    7    8 1
    12    7   23 1
    13    8    9 1
    14    8   24 1
    15    8   25 1
    16    9   10 1
    17    9   26 1
    18    9   27 1
    19   10   14 1
    20   10   11 2
    21   11   12 1
    22   11   28 1
    23   12   13 2
    24   12   29 1
    25   13   14 1
    26   13   15 1
    27   15   16 2
    28   15   17 2
    29   15   18 1
    30   18   30 1
    31   18   31 1
@<TRIPOS>MOLECULE
ZINC50789969
   39    39     0     0     0
SMALL
USER_CHARGES

@<TRIPOS>ATOM
      1 C1         -0.0187    1.5258    0.0104 C.3       1 <0>        -0.1509
      2 C2          0.0021   -0.0041    0.0020 C.3       1 <0>        -0.1351
      3 C3          0.7421   -0.5109    1.2415 C.3       1 <0>         0.1222
      4 N1          0.7619   -1.9757    1.2335 N.pl3     1 <0>        -0.7223
      5 C4          1.3832   -2.6682    2.2666 C.ar      1 <0>         0.4037
      6 C5          1.9788   -1.9627    3.3072 C.ar      1 <0>        -0.1789
      7 C6          2.5981   -2.6726    4.3362 C.ar      1 <0>        -0.0478
      8 C7          2.5913   -4.0713    4.2734 C.ar      1 <0>        -0.2115
      9 C8          1.9781   -4.6936    3.2058 C.ar      1 <0>         0.1531
     10 N2          1.3970   -3.9912    2.2522 N.ar      1 <0>        -0.5301
     11 C9          3.2461   -1.9651    5.4653 C.2       1 <0>         0.5679
     12 O1          3.2428   -0.7506    5.5035 O.2       1 <0>        -0.5139
     13 N3          3.8392   -2.6687    6.4500 N.am      1 <0>        -0.7207
     14 C10         4.4800   -1.9692    7.5664 C.3       1 <0>         0.1615
     15 C11         5.5957   -1.0693    7.0314 C.3       1 <0>        -0.1540
     16 C12         3.4416   -1.1149    8.2963 C.3       1 <0>        -0.1626
     17 C13         5.0629   -2.9775    8.5227 C.2       1 <0>         0.5219
     18 O2          6.0984   -2.7330    9.1049 O.2       1 <0>        -0.5209
     19 N4          4.4336   -4.1510    8.7310 N.am      1 <0>        -0.8529
     20 H1          1.0039    1.9031    0.0027 H         1 <0>         0.0590
     21 H2         -0.5459    1.8868   -0.8726 H         1 <0>         0.0621
     22 H3         -0.5289    1.8773    0.9072 H         1 <0>         0.0589
     23 H4         -1.0205   -0.3814    0.0098 H         1 <0>         0.0706
     24 H5          0.5123   -0.3556   -0.8948 H         1 <0>         0.0707
     25 H6          1.7647   -0.1336    1.2338 H         1 <0>         0.0666
     26 H7          0.2319   -0.1594    2.1383 H         1 <0>         0.0665
     27 H8          0.3416   -2.4625    0.5073 H         1 <0>         0.4076
     28 H9          1.9624   -0.8829    3.3182 H         1 <0>         0.1453
     29 H10         3.0607   -4.6557    5.0509 H         1 <0>         0.1328
     30 H11         1.9699   -5.7722    3.1521 H         1 <0>         0.1633
     31 H12         3.8418   -3.6382    6.4195 H         1 <0>         0.4004
     32 H13         5.1741   -0.3401    6.3397 H         1 <0>         0.0879
     33 H14         6.0725   -0.5489    7.8620 H         1 <0>         0.0795
     34 H15         6.3355   -1.6780    6.5114 H         1 <0>         0.0604
     35 H16         2.6467   -1.7560    8.6775 H         1 <0>         0.0616
     36 H17         3.9183   -0.5945    9.1270 H         1 <0>         0.0760
     37 H18         3.0200   -0.3857    7.6046 H         1 <0>         0.0941
     38 H19         3.6054   -4.3465    8.2654 H         1 <0>         0.4004
     39 H20         4.8088   -4.8000    9.3466 H         1 <0>         0.4076
@<TRIPOS>BOND
     1    1    2 1
     2    1   20 1
     3    1   21 1
     4    1   22 1
     5    2    3 1
     6    2   23 1
     7    2   24 1
     8    3    4 1
     9    3   25 1
    10    3   26 1
    11    4    5 1
    12    4   27 1
    13    5   10 ar
    14    5    6 ar
    15    6    7 ar
    16    6   28 1
    17    7    8 ar
    18    7   11 1
    19    8    9 ar
    20    8   29 1
    21    9   10 ar
    22    9   30 1
    23   11   12 2
    24   11   13 am
    25   13   14 1
    26   13   31 1
    27   14   15 1
    28   14   16 1
    29   14   17 1
    30   15   32 1
    31   15   33 1
    32   15   34 1
    33   16   35 1
    34   16   36 1
    35   16   37 1
    36   17   18 2
    37   17   19 am
    38   19   38 1
    39   19   39 1
@<TRIPOS>MOLECULE
ZINC61808422
   31    31     0     0     0
SMALL
USER_CHARGES

@<TRIPOS>ATOM
      1 C1         -0.8737    0.8680    0.3622 C.ar      1 <0>        -0.1014
      2 C2          0.0753    1.8392    0.1013 C.ar      1 <0>        -0.1145
      3 C3          1.3752    1.4740   -0.1928 C.ar      1 <0>        -0.0903
      4 C4          1.7270    0.1364   -0.2262 C.ar      1 <0>        -0.0957
      5 C5          0.7775   -0.8347    0.0348 C.ar      1 <0>        -0.0467
      6 C6         -0.5226   -0.4684    0.3290 C.ar      1 <0>        -0.0921
      7 C7          1.1600   -2.2919   -0.0019 C.3       1 <0>         0.0649
      8 N1          1.5907   -2.7189    1.3360 N.3       1 <0>        -0.4829
      9 C8          1.5652   -4.1829    1.4550 C.3       1 <0>         0.0151
     10 C9          1.6141   -4.5695    2.9107 C.2       1 <0>         0.5142
     11 O1          1.5629   -3.7129    3.7677 O.2       1 <0>        -0.5260
     12 N2          1.7146   -5.8673    3.2603 N.am      1 <0>        -0.8588
     13 C10         2.9229   -2.1880    1.6546 C.3       1 <0>         0.0187
     14 C11         3.9408   -2.7927    0.7223 C.2       1 <0>         0.4960
     15 O2          3.5790   -3.4994   -0.1946 O.2       1 <0>        -0.5437
     16 N3          5.2532   -2.5481    0.9073 N.am      1 <0>        -0.8551
     17 Br1         3.5055   -0.3640   -0.6292 Br        1 <0>        -0.0446
     18 H1         -1.8885    1.1540    0.5964 H         1 <0>         0.1307
     19 H2         -0.1995    2.8833    0.1271 H         1 <0>         0.1320
     20 H3          2.1163    2.2326   -0.3969 H         1 <0>         0.1323
     21 H4         -1.2641   -1.2267    0.5332 H         1 <0>         0.1329
     22 H5          0.3005   -2.8854   -0.3136 H         1 <0>         0.0894
     23 H6          1.9765   -2.4355   -0.7096 H         1 <0>         0.0918
     24 H7          0.6490   -4.5679    1.0073 H         1 <0>         0.1074
     25 H8          2.4272   -4.6045    0.9380 H         1 <0>         0.0964
     26 H9          1.7555   -6.5524    2.5749 H         1 <0>         0.4011
     27 H10         1.7460   -6.1161    4.1973 H         1 <0>         0.4024
     28 H11         2.9200   -1.1045    1.5360 H         1 <0>         0.1133
     29 H12         3.1779   -2.4402    2.6839 H         1 <0>         0.1113
     30 H13         5.5426   -1.9829    1.6406 H         1 <0>         0.4026
     31 H14         5.9084   -2.9373    0.3072 H         1 <0>         0.3990
@<TRIPOS>BOND
     1    1    6 ar
     2    1    2 ar
     3    1   18 1
     4    2    3 ar
     5    2   19 1
     6    3    4 ar
     7    3   20 1
     8    4    5 ar
     9    4   17 1
    10    5    6 ar
    11    5    7 1
    12    6   21 1
    13    7    8 1
    14    7   22 1
    15    7   23 1
    16    8    9 1
    17    8   13 1
    18    9   10 1
    19    9   24 1
    20    9   25 1
    21   10   11 2
    22   10   12 am
    23   12   26 1
    24   12   27 1
    25   13   14 1
    26   13   28 1
    27   13   29 1
    28   14   15 2
    29   14   16 am
    30   16   30 1
    31   16   31 1
@<TRIPOS>MOLECULE
ZINC25503682
   32    33     0     0     0
SMALL
USER_CHARGES
[3-(1,3-dioxoisoindolin-2-yl)propanoylamino]thiourea
@<TRIPOS>ATOM
      1 C1          0.0686   -4.5872    0.6679 C.ar      1 <0>        -0.0933
      2 C2          0.0549   -4.5798   -0.7143 C.ar      1 <0>        -0.0933
      3 C3          0.0324   -3.3813   -1.4103 C.ar      1 <0>        -0.0427
      4 C4          0.0235   -2.1830   -0.7147 C.ar      1 <0>        -0.1424
      5 C5          0.0375   -2.1906    0.6947 C.ar      1 <0>        -0.1424
      6 C6          0.0600   -3.3963    1.3771 C.ar      1 <0>        -0.0427
      7 C7          0.0230   -0.7711    1.1069 C.2       1 <0>         0.5746
      8 O1          0.0289   -0.3653    2.2516 O.2       1 <0>        -0.4565
      9 N1          0.0021   -0.0041    0.0020 N.am      1 <0>        -0.5779
     10 C8         -0.0040   -0.7593   -1.1112 C.2       1 <0>         0.5746
     11 O2         -0.0260   -0.3413   -2.2513 O.2       1 <0>        -0.4565
     12 C9         -0.0178    1.4608    0.0101 C.3       1 <0>         0.1244
     13 C10         1.4176    1.9904   -0.0008 C.3       1 <0>        -0.1513
     14 C11         1.3972    3.4972    0.0075 C.2       1 <0>         0.5314
     15 O3          0.3388    4.0892    0.0208 O.2       1 <0>        -0.5218
     16 N2          2.5551    4.1869    0.0001 N.am      1 <0>        -0.5574
     17 N3          2.5361    5.5877    0.0079 N.pl3     1 <0>        -0.4835
     18 C12         3.6940    6.2774    0.0005 C.2       1 <0>         0.5811
     19 S1          3.6707    7.9893    0.0099 S.2       1 <0>        -0.6154
     20 N4          4.8701    5.6195   -0.0143 N.pl3     1 <0>        -0.8280
     21 H1          0.0858   -5.5275    1.1990 H         1 <0>         0.1447
     22 H2          0.0614   -5.5143   -1.2556 H         1 <0>         0.1447
     23 H3          0.0214   -3.3816   -2.4903 H         1 <0>         0.1439
     24 H4          0.0711   -3.4081    2.4570 H         1 <0>         0.1439
     25 H5         -0.5499    1.8252   -0.8810 H         1 <0>         0.1117
     26 H6         -0.5327    1.8155    0.9151 H         1 <0>         0.1116
     27 H7          1.9496    1.6260    0.8904 H         1 <0>         0.1110
     28 H8          1.9325    1.6357   -0.9058 H         1 <0>         0.1109
     29 H9          3.5151    3.6499   -0.0121 H         1 <0>         0.4398
     30 H10         1.5761    6.1247    0.0201 H         1 <0>         0.4903
     31 H11         5.8151    6.1824   -0.0203 H         1 <0>         0.4657
     32 H12         4.8850    4.5196   -0.0203 H         1 <0>         0.4007
@<TRIPOS>BOND
     1    1    6 ar
     2    1    2 ar
     3    1   21 1
     4    2    3 ar
     5    2   22 1
     6    3    4 ar
     7    3   23 1
     8    4   10 1
     9    4    5 ar
    10    5    6 ar
    11    5    7 1
    12    6   24 1
    13    7    8 2
    14    7    9 am
    15    9   10 am
    16    9   12 1
    17   10   11 2
    18   12   13 1
    19   12   25 1
    20   12   26 1
    21   13   14 1
    22   13   27 1
    23   13   28 1
    24   14   15 2
    25   14   16 am
    26   16   17 1
    27   16   29 1
    28   17   18 1
    29   17   30 1
    30   18   19 2
    31   18   20 1
    32   20   31 1
    33   20   32 1
@<TRIPOS>MOLECULE
ZINC40549437
   38    39     0     0     0
SMALL
USER_CHARGES

@<TRIPOS>ATOM
      1 C1         -0.0187    1.5258    0.0104 C.3       1 <0>        -0.1608
      2 C2          0.0021   -0.0041    0.0020 C.3       1 <0>         0.2044
      3 H1          0.5123   -0.3556   -0.8948 H         1 <0>         0.1026
      4 C3         -1.4117   -0.5257    0.0127 C.ar      1 <0>        -0.1044
      5 C4         -2.1224   -0.5707    1.1977 C.ar      1 <0>        -0.0855
      6 C5         -3.4191   -1.0484    1.2086 C.ar      1 <0>        -0.1496
      7 C6         -4.0065   -1.4821    0.0322 C.ar      1 <0>         0.1007
      8 C7         -3.2938   -1.4366   -1.1540 C.ar      1 <0>        -0.1482
      9 C8         -1.9990   -0.9535   -1.1634 C.ar      1 <0>        -0.0755
     10 F1         -5.2740   -1.9497    0.0418 F         1 <0>        -0.1378
     11 N1          0.7106   -0.4894    1.1889 N.am      1 <0>        -0.7377
     12 C9          2.0538   -0.5998    1.1737 C.2       1 <0>         0.7104
     13 O1          2.6775   -0.2966    0.1748 O.2       1 <0>        -0.5733
     14 N2          2.7056   -1.0463    2.2656 N.am      1 <0>        -0.6574
     15 C10         4.1093   -1.1617    2.2497 C.2       1 <0>         0.0275
     16 C11         4.9518   -0.8436    1.1747 C.2       1 <0>         0.0523
     17 N3          6.1869   -1.0809    1.5355 N.2       1 <0>        -0.2546
     18 N4          6.1780   -1.5585    2.8522 N.pl3     1 <0>        -0.3672
     19 C12         4.8872   -1.5949    3.2740 C.2       1 <0>         0.0111
     20 C13         7.3530   -1.9448    3.6374 C.3       1 <0>         0.1235
     21 C14         8.1447   -2.9799    2.8806 C.2       1 <0>         0.5001
     22 O2          7.7649   -3.3578    1.7925 O.2       1 <0>        -0.5083
     23 N5          9.2748   -3.4858    3.4129 N.am      1 <0>        -0.8543
     24 H2          1.0039    1.9031    0.0027 H         1 <0>         0.0695
     25 H3         -0.5459    1.8868   -0.8726 H         1 <0>         0.0700
     26 H4         -0.5289    1.8773    0.9072 H         1 <0>         0.0587
     27 H5         -1.6639   -0.2327    2.1152 H         1 <0>         0.1308
     28 H6         -3.9740   -1.0837    2.1345 H         1 <0>         0.1378
     29 H7         -3.7509   -1.7749   -2.0722 H         1 <0>         0.1393
     30 H8         -1.4444   -0.9138   -2.0893 H         1 <0>         0.1378
     31 H9          0.2131   -0.7312    1.9857 H         1 <0>         0.3960
     32 H10         2.2081   -1.2881    3.0624 H         1 <0>         0.4056
     33 H11         4.6353   -0.4674    0.2131 H         1 <0>         0.2078
     34 H12         4.5425   -1.9132    4.2468 H         1 <0>         0.1767
     35 H13         7.9763   -1.0682    3.8139 H         1 <0>         0.1162
     36 H14         7.0313   -2.3601    4.5924 H         1 <0>         0.1261
     37 H15         9.5786   -3.1836    4.2831 H         1 <0>         0.4025
     38 H16         9.7844   -4.1521    2.9257 H         1 <0>         0.4073
@<TRIPOS>BOND
     1    1    2 1
     2    1   24 1
     3    1   25 1
     4    1   26 1
     5    2    3 1
     6    2    4 1
     7    2   11 1
     8    4    9 ar
     9    4    5 ar
    10    5    6 ar
    11    5   27 1
    12    6    7 ar
    13    6   28 1
    14    7    8 ar
    15    7   10 1
    16    8    9 ar
    17    8   29 1
    18    9   30 1
    19   11   12 am
    20   11   31 1
    21   12   13 2
    22   12   14 am
    23   14   15 1
    24   14   32 1
    25   15   19 2
    26   15   16 1
    27   16   17 2
    28   16   33 1
    29   17   18 1
    30   18   19 1
    31   18   20 1
    32   19   34 1
    33   20   21 1
    34   20   35 1
    35   20   36 1
    36   21   22 2
    37   21   23 am
    38   23   37 1
    39   23   38 1
@<TRIPOS>MOLECULE
ZINC46925610
   32    33     0     0     0
SMALL
USER_CHARGES

@<TRIPOS>ATOM
      1 C1         -0.0163    1.3517    0.0095 C.2       1 <0>        -0.1857
      2 C2          1.1755    2.0360    0.0018 C.2       1 <0>        -0.0638
      3 C3          2.3196    1.2528   -0.0134 C.2       1 <0>        -0.2632
      4 S1          1.6361   -0.3937   -0.0157 S.3       1 <0>         0.2090
      5 C4          0.0021   -0.0041    0.0020 C.2       1 <0>        -0.2182
      6 C5          3.7248    1.6700   -0.0245 C.2       1 <0>         0.6107
      7 O1          4.0082    2.8535   -0.0209 O.2       1 <0>        -0.5228
      8 N1          4.7028    0.7428   -0.0389 N.am      1 <0>        -0.7235
      9 C6          6.1072    1.1597   -0.0500 C.3       1 <0>         0.1097
     10 C7          7.0065   -0.0780   -0.0653 C.3       1 <0>         0.1272
     11 N2          8.4109    0.3389   -0.0764 N.am      1 <0>        -0.7392
     12 C8          9.3890   -0.5883   -0.0907 C.2       1 <0>         0.7109
     13 O2          9.1058   -1.7708   -0.0944 O.2       1 <0>        -0.5744
     14 N3         10.6810   -0.2047   -0.1010 N.am      1 <0>        -0.6567
     15 C9         11.7031   -1.1736   -0.1160 C.2       1 <0>         0.0178
     16 C10        13.0379   -0.9273   -0.1219 C.2       1 <0>         0.0193
     17 N4         13.6760   -2.1265   -0.1358 N.pl3     1 <0>        -0.4751
     18 H1         14.6364   -2.2621   -0.1424 H         1 <0>         0.4449
     19 N5         12.7012   -3.1324   -0.1384 N.2       1 <0>        -0.2821
     20 C11        11.5227   -2.5643   -0.1212 C.2       1 <0>         0.0557
     21 H2         -0.9545    1.8864    0.0258 H         1 <0>         0.1405
     22 H3          1.2182    3.1151    0.0068 H         1 <0>         0.1507
     23 H4         -0.8410   -0.6791    0.0070 H         1 <0>         0.1908
     24 H5          4.4769   -0.2005   -0.0418 H         1 <0>         0.4037
     25 H6          6.3008    1.7604   -0.9387 H         1 <0>         0.0800
     26 H7          6.3178    1.7509    0.8412 H         1 <0>         0.0800
     27 H8          6.8129   -0.6788    0.8234 H         1 <0>         0.0785
     28 H9          6.7959   -0.6692   -0.9565 H         1 <0>         0.0785
     29 H10         8.6368    1.2822   -0.0735 H         1 <0>         0.4014
     30 H11        10.9069    0.7386   -0.0981 H         1 <0>         0.4077
     31 H12        13.5073    0.0453   -0.1169 H         1 <0>         0.1799
     32 H13        10.5730   -3.0786   -0.1151 H         1 <0>         0.2077
@<TRIPOS>BOND
     1    1    5 2
     2    1    2 1
     3    1   21 1
     4    2    3 2
     5    2   22 1
     6    3    4 1
     7    3    6 1
     8    4    5 1
     9    5   23 1
    10    6    7 2
    11    6    8 am
    12    8    9 1
    13    8   24 1
    14    9   10 1
    15    9   25 1
    16    9   26 1
    17   10   11 1
    18   10   27 1
    19   10   28 1
    20   11   12 am
    21   11   29 1
    22   12   13 2
    23   12   14 am
    24   14   15 1
    25   14   30 1
    26   15   20 1
    27   15   16 2
    28   16   17 1
    29   16   31 1
    30   17   18 1
    31   17   19 1
    32   19   20 2
    33   20   32 1
@<TRIPOS>MOLECULE
ZINC51354777
   34    35     0     0     0
SMALL
USER_CHARGES

@<TRIPOS>ATOM
      1 C1          1.0202   -0.6467   -0.5028 C.ar      1 <0>        -0.2499
      2 C2          2.1996    0.0726   -0.6456 C.ar      1 <0>         0.0652
      3 C3          2.3993    1.1794    0.1593 C.ar      1 <0>        -0.7978
      4 C4          1.4175    1.5327    1.0797 C.ar      1 <0>         0.4945
      5 N1          0.3061    0.8209    1.1858 N.ar      1 <0>        -0.5311
      6 C5          0.0889   -0.2396    0.4309 C.ar      1 <0>         0.2058
      7 N2          1.6053    2.6424    1.8953 N.pl3     1 <0>        -0.5644
      8 N3          0.6886    2.9419    2.8628 N.3       1 <0>        -0.5934
      9 S1          3.8772    2.1288    0.0215 S.o2      1 <0>         2.6977
     10 O1          4.6829    1.4864   -0.9571 O.2       1 <0>        -0.9484
     11 O2          3.4778    3.4877   -0.0931 O.2       1 <0>        -0.9551
     12 N4          4.6830    1.9922    1.4618 N.pl3     1 <0>        -1.1190
     13 C6          5.2059    0.6918    1.8881 C.3       1 <0>         0.1555
     14 C7          6.2001    0.8912    3.0030 C.ar      1 <0>        -0.0752
     15 C8          7.5384    1.0797    2.7067 C.ar      1 <0>        -0.0982
     16 C9          8.4538    1.2628    3.7222 C.ar      1 <0>        -0.0697
     17 C10         8.0270    1.2580    5.0517 C.ar      1 <0>        -0.0168
     18 C11         6.6749    1.0676    5.3435 C.ar      1 <0>        -0.0714
     19 C12         5.7695    0.8905    4.3179 C.ar      1 <0>        -0.1035
     20 C13         8.9718    1.4470    6.1111 C.1       1 <0>         0.2464
     21 N5          9.7212    1.5969    6.9515 N.1       1 <0>        -0.4053
     22 H1          0.8318   -1.5133   -1.1192 H         1 <0>         0.1453
     23 H2          2.9442   -0.2258   -1.3688 H         1 <0>         0.1552
     24 H3         -0.8298   -0.7959    0.5451 H         1 <0>         0.1671
     25 H4          2.3872    3.2041    1.7775 H         1 <0>         0.4099
     26 H5          0.5541    2.1612    3.4876 H         1 <0>         0.3490
     27 H6          0.9579    3.7704    3.3720 H         1 <0>         0.3618
     28 H7          4.8087    2.7732    2.0231 H         1 <0>         0.4191
     29 H8          4.3847    0.0679    2.2408 H         1 <0>         0.0790
     30 H9          5.6972    0.2040    1.0462 H         1 <0>         0.0980
     31 H10         7.8671    1.0832    1.6779 H         1 <0>         0.1406
     32 H11         9.4983    1.4092    3.4896 H         1 <0>         0.1380
     33 H12         6.3380    1.0628    6.3697 H         1 <0>         0.1362
     34 H13         4.7228    0.7472    4.5420 H         1 <0>         0.1346
@<TRIPOS>BOND
     1    1    6 ar
     2    1    2 ar
     3    1   22 1
     4    2    3 ar
     5    2   23 1
     6    3    4 ar
     7    3    9 1
     8    4    5 ar
     9    4    7 1
    10    5    6 ar
    11    6   24 1
    12    7    8 1
    13    7   25 1
    14    8   26 1
    15    8   27 1
    16    9   10 2
    17    9   11 2
    18    9   12 1
    19   12   13 1
    20   12   28 1
    21   13   14 1
    22   13   29 1
    23   13   30 1
    24   14   19 ar
    25   14   15 ar
    26   15   16 ar
    27   15   31 1
    28   16   17 ar
    29   16   32 1
    30   17   18 ar
    31   17   20 1
    32   18   19 ar
    33   18   33 1
    34   19   34 1
    35   20   21 3
@<TRIPOS>MOLECULE
ZINC62833917
   39    40     0     0     0
SMALL
USER_CHARGES

@<TRIPOS>ATOM
      1 C1         -0.1781    1.4587    0.0144 C.3       1 <0>         0.0620
      2 N1         -0.0612   -0.0016    0.0045 N.am      1 <0>        -0.6073
      3 C2          0.0996   -0.7322    1.2642 C.3       1 <0>         0.0890
      4 C3         -1.2776   -1.1020    1.8187 C.3       1 <0>         0.0921
      5 H1         -1.8024   -1.7301    1.0988 H         1 <0>         0.1144
      6 C4         -1.1097   -1.8649    3.1342 C.3       1 <0>         0.0315
      7 O1         -2.3875   -2.3113    3.5924 O.3       1 <0>        -0.3799
      8 C5         -2.3425   -3.0391    4.8214 C.3       1 <0>         0.0294
      9 O2         -2.0327    0.0886    2.0516 O.3       1 <0>        -0.5454
     10 C6         -0.1016   -0.6730   -1.1634 C.2       1 <0>         0.5864
     11 O3         -0.1196   -1.8893   -1.1655 O.2       1 <0>        -0.5146
     12 C7         -0.1239    0.0649   -2.4354 C.2       1 <0>         0.0168
     13 C8         -0.3262   -0.4845   -3.6617 C.2       1 <0>        -0.1064
     14 C9         -0.2735    0.5597   -4.6163 C.ar      1 <0>        -0.0778
     15 C10        -0.4089    0.5954   -6.0121 C.ar      1 <0>        -0.1197
     16 C11        -0.3061    1.7824   -6.6764 C.ar      1 <0>        -0.0944
     17 C12        -0.0672    2.9632   -5.9851 C.ar      1 <0>        -0.1836
     18 C13         0.0708    2.9568   -4.6093 C.ar      1 <0>         0.2087
     19 C14        -0.0320    1.7509   -3.9087 C.ar      1 <0>         0.0528
     20 N2          0.0514    1.4274   -2.5738 N.pl3     1 <0>        -0.5816
     21 H2          0.2093    2.0531   -1.8496 H         1 <0>         0.4167
     22 N3          0.3121    4.1505   -3.9218 N.pl3     1 <0>        -0.8835
     23 H3          0.8003    1.9027   -0.1688 H         1 <0>         0.0586
     24 H4         -0.8716    1.7729   -0.7656 H         1 <0>         0.0781
     25 H5         -0.5501    1.7868    0.9850 H         1 <0>         0.0909
     26 H6          0.6756   -1.6403    1.0865 H         1 <0>         0.1003
     27 H7          0.6244   -0.1041    1.9840 H         1 <0>         0.0871
     28 H8         -0.4599   -2.7255    2.9747 H         1 <0>         0.0621
     29 H9         -0.6651   -1.2075    3.8813 H         1 <0>         0.0535
     30 H10        -1.9235   -2.4060    5.6035 H         1 <0>         0.0415
     31 H11        -3.3514   -3.3425    5.1011 H         1 <0>         0.0890
     32 H12        -1.7184   -3.9240    4.6969 H         1 <0>         0.0427
     33 H13        -1.6244    0.6960    2.6835 H         1 <0>         0.3683
     34 H14        -0.4963   -1.5303   -3.8707 H         1 <0>         0.1568
     35 H15        -0.5941   -0.3164   -6.5605 H         1 <0>         0.1235
     36 H16        -0.4112    1.8042   -7.7511 H         1 <0>         0.1241
     37 H17         0.0117    3.8942   -6.5268 H         1 <0>         0.1251
     38 H18         0.3830    4.9856   -4.4102 H         1 <0>         0.4028
     39 H19         0.4086    4.1433   -2.9567 H         1 <0>         0.3901
@<TRIPOS>BOND
     1    1    2 1
     2    1   23 1
     3    1   24 1
     4    1   25 1
     5    2    3 1
     6    2   10 am
     7    3    4 1
     8    3   26 1
     9    3   27 1
    10    4    5 1
    11    4    6 1
    12    4    9 1
    13    6    7 1
    14    6   28 1
    15    6   29 1
    16    7    8 1
    17    8   30 1
    18    8   31 1
    19    8   32 1
    20    9   33 1
    21   10   11 2
    22   10   12 1
    23   12   20 1
    24   12   13 2
    25   13   14 1
    26   13   34 1
    27   14   19 ar
    28   14   15 ar
    29   15   16 ar
    30   15   35 1
    31   16   17 ar
    32   16   36 1
    33   17   18 ar
    34   17   37 1
    35   18   19 ar
    36   18   22 1
    37   19   20 1
    38   20   21 1
    39   22   38 1
    40   22   39 1
@<TRIPOS>MOLECULE
ZINC36262884
   34    35     0     0     0
SMALL
USER_CHARGES

@<TRIPOS>ATOM
      1 C1         -0.0171    1.4084    0.0098 C.2       1 <0>        -0.3505
      2 C2          1.1865    2.0853    0.0019 C.2       1 <0>         0.1796
      3 N1          2.3363    1.3969   -0.0127 N.2       1 <0>        -0.6232
      4 C3          2.3466    0.0835   -0.0199 C.2       1 <0>         0.6149
      5 O1          3.5289   -0.5660   -0.0347 O.3       1 <0>        -0.6662
      6 N2          1.1947   -0.6360   -0.0123 N.am      1 <0>        -0.6577
      7 H1          1.2291   -1.6054   -0.0175 H         1 <0>         0.4032
      8 C4          0.0021   -0.0041    0.0020 C.2       1 <0>         0.5404
      9 O2         -1.0383   -0.6399    0.0089 O.2       1 <0>        -0.5785
     10 C5          1.2067    3.5712    0.0092 C.2       1 <0>         0.5854
     11 O3          0.1633    4.1927    0.0221 O.2       1 <0>        -0.5295
     12 N3          2.3829    4.2291    0.0015 N.am      1 <0>        -0.7225
     13 C6          2.4029    5.6940    0.0087 C.3       1 <0>         0.1246
     14 C7          3.8521    6.1844   -0.0024 C.3       1 <0>        -0.1652
     15 C8          3.8730    7.7142    0.0051 C.3       1 <0>         0.0007
     16 N4          5.2644    8.1850   -0.0055 N.4       1 <0>        -0.4794
     17 C9          5.2844    9.6539    0.0017 C.3       1 <0>        -0.0815
     18 C10         5.8856   10.3582   -1.2163 C.3       1 <0>        -0.1554
     19 C11         6.6470   10.3413    0.1107 C.3       1 <0>        -0.1562
     20 H2         -0.9529    1.9473    0.0260 H         1 <0>         0.1409
     21 H3          3.2163    3.7328   -0.0088 H         1 <0>         0.4185
     22 H4          1.8857    6.0687   -0.8746 H         1 <0>         0.0756
     23 H5          1.9024    6.0598    0.9053 H         1 <0>         0.0756
     24 H6          4.3693    5.8096    0.8809 H         1 <0>         0.0972
     25 H7          4.3526    5.8186   -0.8989 H         1 <0>         0.0966
     26 H8          3.3558    8.0890   -0.8782 H         1 <0>         0.1359
     27 H9          3.3725    8.0800    0.9017 H         1 <0>         0.1358
     28 H10         5.7432    7.8381    0.8121 H         1 <0>         0.4299
     29 H11         4.4381   10.1331    0.4938 H         1 <0>         0.1776
     30 H12         6.2662    9.7317   -2.0229 H         1 <0>         0.1213
     31 H13         5.4346   11.3010   -1.5259 H         1 <0>         0.1324
     32 H14         6.6970   11.2730    0.6741 H         1 <0>         0.1325
     33 H15         7.5285    9.7037    0.1770 H         1 <0>         0.1209
     34 H16         5.7277    7.8464   -0.8355 H         1 <0>         0.4266
@<TRIPOS>BOND
     1    1    8 1
     2    1    2 2
     3    1   20 1
     4    2    3 1
     5    2   10 1
     6    3    4 2
     7    4    5 1
     8    4    6 1
     9    6    7 1
    10    6    8 am
    11    8    9 2
    12   10   11 2
    13   10   12 am
    14   12   13 1
    15   12   21 1
    16   13   14 1
    17   13   22 1
    18   13   23 1
    19   14   15 1
    20   14   24 1
    21   14   25 1
    22   15   16 1
    23   15   26 1
    24   15   27 1
    25   16   17 1
    26   16   28 1
    27   16   34 1
    28   17   19 1
    29   17   18 1
    30   17   29 1
    31   18   19 1
    32   18   30 1
    33   18   31 1
    34   19   32 1
    35   19   33 1
@<TRIPOS>MOLECULE
ZINC40315826
   28    29     0     0     0
SMALL
USER_CHARGES

@<TRIPOS>ATOM
      1 C1         -0.0168    1.3845    0.0097 C.ar      1 <0>        -0.1352
      2 C2          1.1707    2.0901    0.0021 C.ar      1 <0>        -0.0716
      3 C3          2.3782    1.4147   -0.0131 C.ar      1 <0>        -0.0154
      4 C4          2.3999    0.0309   -0.0211 C.ar      1 <0>        -0.6178
      5 C5          1.2158   -0.6796   -0.0141 C.ar      1 <0>        -0.0885
      6 C6          0.0021   -0.0041    0.0020 C.ar      1 <0>         0.2080
      7 N1         -1.1977   -0.7205    0.0101 N.pl3     1 <0>        -0.8703
      8 S1          3.9399   -0.8251   -0.0410 S.o2      1 <0>         2.6965
      9 O1          4.7401   -0.2453    0.9801 O.2       1 <0>        -0.9336
     10 O2          3.6331   -2.2123   -0.0730 O.2       1 <0>        -0.9504
     11 N2          4.6786   -0.4705   -1.4800 N.pl3     1 <0>        -1.1064
     12 C7          5.0999    0.9027   -1.7683 C.3       1 <0>         0.2083
     13 C8          6.0515    0.9014   -2.9369 C.2       1 <0>         0.2120
     14 N3          5.7042    1.0144   -4.2182 N.2       1 <0>        -0.5325
     15 H1          8.7715    0.7772   -4.4482 H         1 <0>         0.4454
     16 C9          6.7724    0.9762   -4.9726 C.2       1 <0>         0.2650
     17 N4          7.8434    0.8354   -4.1724 N.pl3     1 <0>        -0.4798
     18 N5          7.3518    0.7949   -2.8574 N.2       1 <0>        -0.2918
     19 Cl1         3.8687    2.3047   -0.0225 Cl        1 <0>        -0.0482
     20 H2         -0.9589    1.9122    0.0260 H         1 <0>         0.1398
     21 H3          1.1567    3.1700    0.0077 H         1 <0>         0.1450
     22 H4          1.2334   -1.7594   -0.0212 H         1 <0>         0.1515
     23 H5         -2.0447   -0.2479    0.0210 H         1 <0>         0.4040
     24 H6         -1.1835   -1.6904    0.0047 H         1 <0>         0.4048
     25 H7          4.8324   -1.1720   -2.1321 H         1 <0>         0.4236
     26 H8          4.2263    1.5073   -2.0118 H         1 <0>         0.1038
     27 H9          5.5988    1.3208   -0.8940 H         1 <0>         0.1069
     28 H10         6.7906    1.0453   -6.0503 H         1 <0>         0.2270
@<TRIPOS>BOND
     1    1    6 ar
     2    1    2 ar
     3    1   20 1
     4    2    3 ar
     5    2   21 1
     6    3    4 ar
     7    3   19 1
     8    4    5 ar
     9    4    8 1
    10    5    6 ar
    11    5   22 1
    12    6    7 1
    13    7   23 1
    14    7   24 1
    15    8    9 2
    16    8   10 2
    17    8   11 1
    18   11   12 1
    19   11   25 1
    20   12   26 1
    21   12   27 1
    22   12   13 1
    23   13   14 1
    24   13   18 2
    25   14   16 2
    26   15   17 1
    27   16   28 1
    28   16   17 1
    29   17   18 1
@<TRIPOS>MOLECULE
ZINC44882758
   37    37     0     0     0
SMALL
USER_CHARGES

@<TRIPOS>ATOM
      1 C1         -0.0187    1.5258    0.0104 C.3       1 <0>        -0.1532
      2 C2          0.0021   -0.0041    0.0020 C.3       1 <0>        -0.1089
      3 C3          0.7182   -0.4975   -1.2568 C.3       1 <0>        -0.0511
      4 H1          0.2444   -0.0644   -2.1377 H         1 <0>         0.1216
      5 C4          2.1652   -0.0794   -1.2080 C.2       1 <0>         0.3913
      6 N1          2.7355    0.1423   -0.0702 N.2       1 <0>        -0.4105
      7 O1          4.0952    0.5351   -0.0244 O.3       1 <0>        -0.4249
      8 N2          2.8797    0.0663   -2.3764 N.pl3     1 <0>        -0.8652
      9 C5          0.6316   -2.0003   -1.3275 C.2       1 <0>         0.5256
     10 O2          1.6452   -2.6663   -1.3373 O.2       1 <0>        -0.5113
     11 N3         -0.5721   -2.6043   -1.3798 N.am      1 <0>        -0.7227
     12 C6         -0.6562   -4.0652   -1.4486 C.3       1 <0>         0.1844
     13 C7          0.0982   -4.6557   -0.2582 C.3       1 <0>        -0.1506
     14 C8         -0.8607   -4.8366    0.9516 C.3       1 <0>        -0.5626
     15 S1         -2.3699   -5.4224    0.0630 S.o2      1 <0>         2.3644
     16 O3         -2.2411   -6.8106   -0.2117 O.2       1 <0>        -0.9251
     17 O4         -3.5251   -4.9437    0.7381 O.2       1 <0>        -0.9335
     18 C9         -2.1418   -4.4726   -1.4977 C.3       1 <0>        -0.5882
     19 C10         0.0234   -4.5339   -2.7368 C.3       1 <0>        -0.1687
     20 H2          1.0039    1.9031    0.0027 H         1 <0>         0.0633
     21 H3         -0.5459    1.8868   -0.8726 H         1 <0>         0.0541
     22 H4         -0.5289    1.8773    0.9072 H         1 <0>         0.0634
     23 H5          0.5293   -0.3651    0.8851 H         1 <0>         0.0878
     24 H6         -1.0205   -0.3814    0.0098 H         1 <0>         0.0746
     25 H7          4.4334    0.6778    0.8702 H         1 <0>         0.3997
     26 H8          2.4515   -0.1001   -3.2307 H         1 <0>         0.3946
     27 H9          3.8111    0.3354   -2.3450 H         1 <0>         0.4088
     28 H10        -1.3827   -2.0716   -1.3720 H         1 <0>         0.4050
     29 H11         0.5122   -5.6244   -0.5382 H         1 <0>         0.1012
     30 H12         0.9104   -3.9852    0.0225 H         1 <0>         0.1237
     31 H13        -0.4889   -5.5919    1.6439 H         1 <0>         0.1447
     32 H14        -1.0416   -3.8897    1.4603 H         1 <0>         0.1379
     33 H15        -2.7824   -3.5907   -1.5085 H         1 <0>         0.1480
     34 H16        -2.3393   -5.1034   -2.3644 H         1 <0>         0.1541
     35 H17         1.0647   -4.2117   -2.7361 H         1 <0>         0.0860
     36 H18        -0.0204   -5.6214   -2.7958 H         1 <0>         0.0751
     37 H19        -0.4898   -4.1024   -3.5961 H         1 <0>         0.0668
@<TRIPOS>BOND
     1    1    2 1
     2    1   20 1
     3    1   21 1
     4    1   22 1
     5    2    3 1
     6    2   23 1
     7    2   24 1
     8    3    4 1
     9    3    5 1
    10    3    9 1
    11    5    6 2
    12    5    8 1
    13    6    7 1
    14    7   25 1
    15    8   26 1
    16    8   27 1
    17    9   10 2
    18    9   11 am
    19   11   12 1
    20   11   28 1
    21   12   18 1
    22   12   13 1
    23   12   19 1
    24   13   14 1
    25   13   29 1
    26   13   30 1
    27   14   15 1
    28   14   31 1
    29   14   32 1
    30   15   16 2
    31   15   17 2
    32   15   18 1
    33   18   33 1
    34   18   34 1
    35   19   35 1
    36   19   36 1
    37   19   37 1
@<TRIPOS>MOLECULE
ZINC50389000
   37    37     0     0     0
SMALL
USER_CHARGES

@<TRIPOS>ATOM
      1 C1         -0.0184    1.5028    0.0103 C.3       1 <0>        -0.0793
      2 C2          0.0021   -0.0041    0.0020 C.2       1 <0>         0.1175
      3 C3          0.0081   -0.8280   -1.1457 C.2       1 <0>        -0.2864
      4 C4          0.0284   -2.1369   -0.7077 C.2       1 <0>         0.1240
      5 N1          0.0343   -2.1114    0.6347 N.pl3     1 <0>        -0.3619
      6 N2          0.0230   -0.7762    1.0532 N.2       1 <0>        -0.2983
      7 C5          0.0548   -3.2837    1.5130 C.3       1 <0>         0.0964
      8 C6          0.0409   -3.3682   -1.5765 C.3       1 <0>        -0.0968
      9 C7         -0.0048   -0.3747   -2.5486 C.2       1 <0>         0.6106
     10 O1          1.0429   -0.1736   -3.1322 O.2       1 <0>        -0.5337
     11 N3         -1.1778   -0.1833   -3.1841 N.am      1 <0>        -0.7072
     12 C8         -1.1906    0.2672   -4.5781 C.3       1 <0>         0.1553
     13 H1         -0.3588    0.9511   -4.7466 H         1 <0>         0.1006
     14 C9         -1.0531   -0.9416   -5.5059 C.3       1 <0>        -0.1669
     15 C10        -2.5092    0.9864   -4.8695 C.3       1 <0>        -0.0726
     16 C11        -2.5886    2.2442   -4.0433 C.2       1 <0>         0.3570
     17 N4         -1.6208    2.5557   -3.2464 N.2       1 <0>        -0.4027
     18 O2         -1.6954    3.7376   -2.4701 O.3       1 <0>        -0.4303
     19 N5         -3.6929    3.0617   -4.1380 N.pl3     1 <0>        -0.8742
     20 H2          1.0042    1.8801    0.0026 H         1 <0>         0.0806
     21 H3         -0.5455    1.8639   -0.8728 H         1 <0>         0.0846
     22 H4         -0.5286    1.8543    0.9071 H         1 <0>         0.0749
     23 H5          1.0874   -3.5602    1.7260 H         1 <0>         0.0790
     24 H6         -0.4580   -3.0480    2.4455 H         1 <0>         0.0933
     25 H7         -0.4499   -4.1152    1.0210 H         1 <0>         0.0897
     26 H8          1.0715   -3.6509   -1.7912 H         1 <0>         0.0881
     27 H9         -0.4591   -4.1852   -1.0562 H         1 <0>         0.0766
     28 H10        -0.4806   -3.1592   -2.5105 H         1 <0>         0.0864
     29 H11        -2.0135   -0.3437   -2.7186 H         1 <0>         0.3964
     30 H12        -1.8849   -1.6255   -5.3374 H         1 <0>         0.0581
     31 H13        -1.0626   -0.6064   -6.5431 H         1 <0>         0.0680
     32 H14        -0.1137   -1.4539   -5.2983 H         1 <0>         0.0665
     33 H15        -2.5569    1.2432   -5.9278 H         1 <0>         0.1090
     34 H16        -3.3436    0.3322   -4.6165 H         1 <0>         0.0976
     35 H17        -0.9251    3.8861   -1.9047 H         1 <0>         0.3978
     36 H18        -4.4196    2.8278   -4.7364 H         1 <0>         0.3955
     37 H19        -3.7440    3.8713   -3.6062 H         1 <0>         0.4068
@<TRIPOS>BOND
     1    1    2 1
     2    1   20 1
     3    1   21 1
     4    1   22 1
     5    2    6 2
     6    2    3 1
     7    3    4 2
     8    3    9 1
     9    4    5 1
    10    4    8 1
    11    5    6 1
    12    5    7 1
    13    7   23 1
    14    7   24 1
    15    7   25 1
    16    8   26 1
    17    8   27 1
    18    8   28 1
    19    9   10 2
    20    9   11 am
    21   11   12 1
    22   11   29 1
    23   12   13 1
    24   12   14 1
    25   12   15 1
    26   14   30 1
    27   14   31 1
    28   14   32 1
    29   15   16 1
    30   15   33 1
    31   15   34 1
    32   16   17 2
    33   16   19 1
    34   17   18 1
    35   18   35 1
    36   19   36 1
    37   19   37 1
@<TRIPOS>MOLECULE
ZINC53035700
   29    30     0     0     0
SMALL
USER_CHARGES

@<TRIPOS>ATOM
      1 C1         -0.0184    1.5028    0.0103 C.3       1 <0>        -0.0788
      2 C2          0.0021   -0.0041    0.0020 C.2       1 <0>         0.0026
      3 C3         -1.0783   -0.8055    0.0027 C.2       1 <0>        -0.2180
      4 C4         -0.6011   -2.1363   -0.0068 C.2       1 <0>        -0.1762
      5 C5          0.7423   -2.0686   -0.0126 C.2       1 <0>        -0.0376
      6 O1          1.1020   -0.7746   -0.0131 O.3       1 <0>        -0.1673
      7 C6          1.6840   -3.2450   -0.0226 C.3       1 <0>         0.1963
      8 N1          1.9828   -3.6196   -1.4070 N.pl3     1 <0>        -1.1167
      9 S1          3.2598   -4.6212   -1.7366 S.o2      1 <0>         2.7269
     10 O2          3.2712   -4.8149   -3.1443 O.2       1 <0>        -0.9586
     11 O3          4.3773   -4.1004   -1.0302 O.2       1 <0>        -0.9548
     12 C7          2.8935   -6.1867   -1.0159 C.2       1 <0>        -0.8526
     13 C8          2.6963   -7.3451   -1.6856 C.2       1 <0>         0.2103
     14 N2          2.4420   -8.3103   -0.7772 N.pl3     1 <0>        -0.4503
     15 H1          2.2620   -9.2433   -0.9724 H         1 <0>         0.4482
     16 N3          2.4832   -7.7294    0.4967 N.2       1 <0>        -0.3442
     17 C9          2.7604   -6.4544    0.3563 C.2       1 <0>         0.4135
     18 N4          2.8963   -5.5234    1.3927 N.pl3     1 <0>        -0.8435
     19 H2          1.0042    1.8801    0.0026 H         1 <0>         0.0781
     20 H3         -0.5455    1.8639   -0.8728 H         1 <0>         0.0883
     21 H4         -0.5286    1.8543    0.9071 H         1 <0>         0.0883
     22 H5         -2.1119   -0.4924    0.0097 H         1 <0>         0.1511
     23 H6         -1.2002   -3.0349   -0.0086 H         1 <0>         0.1513
     24 H7          2.6082   -2.9750    0.4883 H         1 <0>         0.0950
     25 H8          1.2186   -4.0873    0.4893 H         1 <0>         0.1019
     26 H9          1.4327   -3.2809   -2.1306 H         1 <0>         0.4239
     27 H10         2.7355   -7.4747   -2.7570 H         1 <0>         0.1996
     28 H11         3.1011   -4.5974    1.1891 H         1 <0>         0.4099
     29 H12         2.7858   -5.8043    2.3145 H         1 <0>         0.4135
@<TRIPOS>BOND
     1    1    2 1
     2    1   19 1
     3    1   20 1
     4    1   21 1
     5    2    6 1
     6    2    3 2
     7    3    4 1
     8    3   22 1
     9    4    5 2
    10    4   23 1
    11    5    6 1
    12    5    7 1
    13    7    8 1
    14    7   24 1
    15    7   25 1
    16    8    9 1
    17    8   26 1
    18    9   10 2
    19    9   11 2
    20    9   12 1
    21   12   17 1
    22   12   13 2
    23   13   14 1
    24   13   27 1
    25   14   15 1
    26   14   16 1
    27   16   17 2
    28   17   18 1
    29   18   28 1
    30   18   29 1
@<TRIPOS>MOLECULE
ZINC11740734
   52    54     0     0     0
SMALL
USER_CHARGES
(8-carbamoyl-6-thiabicyclo[3.3.0]octa-7,9-dien-7-yl)carbamoylmethyl 3-phenyl-3-ureido-propanoate
@<TRIPOS>ATOM
      1 C1         -4.9936    2.7664   -3.1656 C.ar      1 <0>        -0.1144
      2 C2         -4.8194    4.0860   -2.7926 C.ar      1 <0>        -0.1186
      3 C3         -3.9961    4.4004   -1.7276 C.ar      1 <0>        -0.0959
      4 C4         -3.3476    3.3950   -1.0351 C.ar      1 <0>        -0.1018
      5 C5         -3.5179    2.0757   -1.4112 C.ar      1 <0>        -0.1024
      6 C6         -4.3447    1.7611   -2.4734 C.ar      1 <0>        -0.1219
      7 C7         -2.4500    3.7377    0.1260 C.3       1 <0>         0.2203
      8 H1         -2.2306    4.8053    0.1129 H         1 <0>         0.1088
      9 C8         -3.1519    3.3773    1.4368 C.3       1 <0>        -0.1180
     10 C9         -2.3081    3.8316    2.5998 C.2       1 <0>         0.4622
     11 O1         -1.2535    4.3867    2.4006 O.2       1 <0>        -0.4877
     12 O2         -2.7280    3.6197    3.8570 O.3       1 <0>        -0.3316
     13 C10        -1.8640    4.0839    4.9277 C.3       1 <0>         0.0566
     14 C11        -2.4948    3.7612    6.2578 C.2       1 <0>         0.5114
     15 O3         -3.5668    3.1957    6.2993 O.2       1 <0>        -0.4725
     16 N1         -1.8675    4.1011    7.4012 N.am      1 <0>        -0.6159
     17 C12        -2.4478    3.8042    8.6250 C.2       1 <0>         0.0648
     18 C13        -1.9604    4.0649    9.8942 C.2       1 <0>        -0.2096
     19 C14        -2.7783    3.6481   11.0327 C.2       1 <0>        -0.0947
     20 C15        -3.9329    3.0366   10.7128 C.2       1 <0>        -0.2304
     21 S1         -3.9540    3.0109    8.9370 S.3       1 <0>         0.2698
     22 C16        -4.7159    2.6357   11.9336 C.3       1 <0>        -0.0326
     23 C17        -4.0992    3.4656   13.0813 C.3       1 <0>        -0.1165
     24 C18        -2.6711    3.7144   12.5567 C.3       1 <0>        -0.0615
     25 C19        -0.6726    4.7381   10.0899 C.2       1 <0>         0.5821
     26 O4         -0.6259    5.9519   10.1670 O.2       1 <0>        -0.5318
     27 N2          0.4595    4.0129   10.1844 N.am      1 <0>        -0.8474
     28 N3         -1.2003    2.9809    0.0171 N.am      1 <0>        -0.7344
     29 C20        -0.1808    3.4660   -0.7189 C.2       1 <0>         0.7143
     30 O5         -0.3288    4.4848   -1.3658 O.2       1 <0>        -0.5863
     31 N4          1.0029    2.8218   -0.7377 N.am      1 <0>        -0.8675
     32 H2         -5.6368    2.5208   -3.9977 H         1 <0>         0.1224
     33 H3         -5.3264    4.8715   -3.3334 H         1 <0>         0.1243
     34 H4         -3.8598    5.4314   -1.4364 H         1 <0>         0.1244
     35 H5         -3.0078    1.2906   -0.8729 H         1 <0>         0.1177
     36 H6         -4.4810    0.7301   -2.7646 H         1 <0>         0.1222
     37 H7         -4.1225    3.8716    1.4771 H         1 <0>         0.1303
     38 H8         -3.2916    2.2975    1.4893 H         1 <0>         0.1178
     39 H9         -0.8962    3.5878    4.8546 H         1 <0>         0.1115
     40 H10        -1.7271    5.1619    4.8425 H         1 <0>         0.1129
     41 H11        -1.0100    4.5535    7.3680 H         1 <0>         0.4221
     42 H12        -5.7697    2.8847   11.8081 H         1 <0>         0.0807
     43 H13        -4.5968    1.5700   12.1287 H         1 <0>         0.0863
     44 H14        -4.6350    4.4054   13.2147 H         1 <0>         0.0780
     45 H15        -4.0800    2.8941   14.0092 H         1 <0>         0.0852
     46 H16        -2.3212    4.6988   12.8677 H         1 <0>         0.0744
     47 H17        -1.9950    2.9416   12.9225 H         1 <0>         0.0808
     48 H18         0.4223    3.0456   10.1230 H         1 <0>         0.4036
     49 H19         1.3114    4.4583   10.3139 H         1 <0>         0.4040
     50 H20        -1.1067    2.1308    0.4746 H         1 <0>         0.3935
     51 H21         1.7367    3.1709   -1.2674 H         1 <0>         0.4156
     52 H22         1.1223    2.0112   -0.2184 H         1 <0>         0.3953
@<TRIPOS>BOND
     1    1    6 ar
     2    1    2 ar
     3    1   32 1
     4    2    3 ar
     5    2   33 1
     6    3    4 ar
     7    3   34 1
     8    4    5 ar
     9    4    7 1
    10    5    6 ar
    11    5   35 1
    12    6   36 1
    13    7    8 1
    14    7    9 1
    15    7   28 1
    16    9   10 1
    17    9   37 1
    18    9   38 1
    19   10   11 2
    20   10   12 1
    21   12   13 1
    22   13   14 1
    23   13   39 1
    24   13   40 1
    25   14   15 2
    26   14   16 am
    27   16   17 1
    28   16   41 1
    29   17   21 1
    30   17   18 2
    31   18   19 1
    32   18   25 1
    33   19   24 1
    34   19   20 2
    35   20   21 1
    36   20   22 1
    37   22   23 1
    38   22   42 1
    39   22   43 1
    40   23   24 1
    41   23   44 1
    42   23   45 1
    43   24   46 1
    44   24   47 1
    45   25   26 2
    46   25   27 am
    47   27   48 1
    48   27   49 1
    49   28   29 am
    50   28   50 1
    51   29   30 2
    52   29   31 am
    53   31   51 1
    54   31   52 1
@<TRIPOS>MOLECULE
ZINC20806455
   44    46     0     0     0
SMALL
USER_CHARGES
2-[[4-amino-5-[(N'E)-N'-[(3-hydroxyphenyl)methylene]hydrazino]-1,2,4-triazol-3-yl]sulfanyl]-N-(2-furylmethyl)acetamide
@<TRIPOS>ATOM
      1 C1         -1.2208    1.7480    0.0174 C.ar      1 <0>        -0.0823
      2 C2         -1.2480    3.1274    0.0308 C.ar      1 <0>        -0.1226
      3 C3         -0.0514    3.8487    0.0228 C.ar      1 <0>        -0.0084
      4 C4          1.1678    3.1678    0.0075 C.ar      1 <0>        -0.1373
      5 C5          1.1823    1.7837    0.0003 C.ar      1 <0>         0.1524
      6 C6         -0.0126    1.0758    0.0080 C.ar      1 <0>        -0.1992
      7 O1          2.3665    1.1171   -0.0145 O.3       1 <0>        -0.5112
      8 C7         -0.0758    5.3229    0.0299 C.2       1 <0>         0.0926
      9 N1         -1.2109    5.9534    0.0442 N.2       1 <0>        -0.1862
     10 N2         -1.2341    7.3542    0.0510 N.pl3     1 <0>        -0.5611
     11 C8         -2.4469    8.0279    0.0662 C.2       1 <0>         0.4867
     12 N3         -3.6356    7.4749    0.0697 N.2       1 <0>        -0.3133
     13 N4         -4.5899    8.5004    0.0897 N.2       1 <0>        -0.3049
     14 C9         -3.9528    9.6471    0.0888 C.2       1 <0>         0.1738
     15 N5         -2.6123    9.3851    0.0742 N.pl3     1 <0>        -0.2622
     16 N6         -1.6124   10.3158    0.0687 N.3       1 <0>        -0.7778
     17 S1         -4.6957   11.2447    0.1031 S.3       1 <0>         0.0726
     18 C10        -6.4766   10.9004    0.1194 C.3       1 <0>        -0.1444
     19 C11        -7.2394   12.2000    0.1327 C.2       1 <0>         0.5404
     20 O2         -6.6406   13.2547    0.1313 O.2       1 <0>        -0.5257
     21 N7         -8.5871   12.1903    0.1462 N.am      1 <0>        -0.7321
     22 C12        -9.3286   13.4537    0.1591 C.3       1 <0>         0.2064
     23 C13       -10.8082   13.1677    0.1726 C.2       1 <0>        -0.0430
     24 C14       -11.5696   13.0136    1.2708 C.2       1 <0>        -0.1789
     25 C15       -12.8870   12.7618    0.8237 C.2       1 <0>        -0.2185
     26 C16       -12.8519   12.7770   -0.5209 C.2       1 <0>        -0.0245
     27 O3        -11.5913   13.0291   -0.9096 O.3       1 <0>        -0.1714
     28 H1         -2.1463    1.1914    0.0184 H         1 <0>         0.1293
     29 H2         -2.1935    3.6492    0.0422 H         1 <0>         0.1373
     30 H3          2.0964    3.7193    0.0016 H         1 <0>         0.1331
     31 H4          0.0021   -0.0041    0.0020 H         1 <0>         0.1285
     32 H5          2.3785    0.0172   -0.0202 H         1 <0>         0.4359
     33 H6          0.8675    5.8886    0.0231 H         1 <0>         0.1265
     34 H7         -0.2908    7.9199    0.0443 H         1 <0>         0.4102
     35 H8         -1.8588   11.3878    0.0762 H         1 <0>         0.4498
     36 H9         -0.5608    9.9932    0.0568 H         1 <0>         0.4367
     37 H10        -6.7471   10.3256   -0.7786 H         1 <0>         0.1303
     38 H11        -6.7292   10.3177    1.0176 H         1 <0>         0.1305
     39 H12        -9.1303   11.2338    0.1475 H         1 <0>         0.4317
     40 H13        -9.0580   14.0285    1.0571 H         1 <0>         0.1023
     41 H14        -9.0759   14.0364   -0.7391 H         1 <0>         0.0881
     42 H15       -11.2380   13.0707    2.2970 H         1 <0>         0.1516
     43 H16       -13.7550   12.5898    1.4430 H         1 <0>         0.1519
     44 H17       -13.6953   12.6186   -1.1766 H         1 <0>         0.2063
@<TRIPOS>BOND
     1    1    6 ar
     2    1    2 ar
     3    1   28 1
     4    2    3 ar
     5    2   29 1
     6    3    4 ar
     7    3    8 1
     8    4    5 ar
     9    4   30 1
    10    5    6 ar
    11    5    7 1
    12    6   31 1
    13    7   32 1
    14    8    9 2
    15    8   33 1
    16    9   10 1
    17   10   11 1
    18   10   34 1
    19   11   15 1
    20   11   12 2
    21   12   13 1
    22   13   14 2
    23   14   15 1
    24   14   17 1
    25   15   16 1
    26   16   35 1
    27   16   36 1
    28   17   18 1
    29   18   19 1
    30   18   37 1
    31   18   38 1
    32   19   20 2
    33   19   21 am
    34   21   22 1
    35   21   39 1
    36   22   23 1
    37   22   40 1
    38   22   41 1
    39   23   27 1
    40   23   24 2
    41   24   25 1
    42   24   42 1
    43   25   26 2
    44   25   43 1
    45   26   27 1
    46   26   44 1
@<TRIPOS>MOLECULE
ZINC37538906
   58    60     0     0     0
SMALL
USER_CHARGES

@<TRIPOS>ATOM
      1 C1         -0.4549    0.8083    1.2498 C.3       1 <0>         0.0260
      2 O1         -0.3983   -0.6035    1.0357 O.3       1 <0>        -0.3068
      3 C2         -1.5831   -1.2518    0.8767 C.ar      1 <0>         0.1026
      4 C3         -2.7734   -0.5436    0.9199 C.ar      1 <0>        -0.1549
      5 C4         -3.9769   -1.2041    0.7576 C.ar      1 <0>        -0.0873
      6 C5         -3.9965   -2.5712    0.5525 C.ar      1 <0>        -0.0957
      7 C6         -2.8127   -3.2837    0.5087 C.ar      1 <0>        -0.1512
      8 C7         -1.6026   -2.6269    0.6645 C.ar      1 <0>         0.1064
      9 O2         -0.4368   -3.3255    0.6157 O.3       1 <0>        -0.2821
     10 C8         -0.5332   -4.7339    0.3945 C.3       1 <0>         0.2237
     11 H1         -1.2550   -5.1625    1.0898 H         1 <0>         0.0684
     12 C9          0.8364   -5.3807    0.6172 C.3       1 <0>         0.0673
     13 H2          1.1445   -5.2339    1.6524 H         1 <0>         0.0730
     14 C10         0.7388   -6.8801    0.3199 C.3       1 <0>         0.0807
     15 H3          0.0445   -7.3461    1.0192 H         1 <0>         0.0805
     16 C11         0.2305   -7.0735   -1.1121 C.3       1 <0>         0.0914
     17 H4          0.1054   -8.1373   -1.3137 H         1 <0>         0.0769
     18 C12        -1.1157   -6.3613   -1.2681 C.3       1 <0>         0.1138
     19 H5         -1.8451   -6.8114   -0.5946 H         1 <0>         0.0843
     20 O3         -0.9613   -4.9774   -0.9470 O.3       1 <0>        -0.3605
     21 C13        -1.6016   -6.4992   -2.7123 C.3       1 <0>         0.0828
     22 O4         -2.9098   -5.9365   -2.8305 O.3       1 <0>        -0.3458
     23 C14        -3.4834   -5.9773   -4.0434 C.2       1 <0>         0.4894
     24 O5         -2.8943   -6.4743   -4.9739 O.2       1 <0>        -0.5000
     25 C15        -4.8622   -5.4032   -4.2445 C.3       1 <0>        -0.0806
     26 H6         -5.4236   -5.4450   -3.3111 H         1 <0>         0.1103
     27 C16        -5.6062   -6.1884   -5.3444 C.3       1 <0>        -0.1182
     28 C17        -6.4177   -5.1070   -6.1002 C.3       1 <0>        -0.1203
     29 C18        -5.4470   -3.9001   -6.1160 C.3       1 <0>        -0.1594
     30 C19        -4.7609   -3.9479   -4.7339 C.3       1 <0>         0.1145
     31 H7         -5.2739   -3.2835   -4.0385 H         1 <0>         0.0736
     32 O6         -3.3891   -3.5663   -4.8545 O.3       1 <0>        -0.5606
     33 O7          1.1739   -6.5208   -2.0323 O.3       1 <0>        -0.5262
     34 O8          2.0288   -7.4795    0.4561 O.3       1 <0>        -0.5452
     35 O9          1.7954   -4.7809   -0.2561 O.3       1 <0>        -0.5209
     36 C20        -5.2704   -0.4324    0.8049 C.3       1 <0>         0.1202
     37 O10        -5.6091    0.0107   -0.5107 O.3       1 <0>        -0.5668
     38 H8          0.5563    1.1998    1.3606 H         1 <0>         0.1021
     39 H9         -0.9380    1.2859    0.3974 H         1 <0>         0.0560
     40 H10        -1.0261    1.0160    2.1545 H         1 <0>         0.0546
     41 H11        -2.7609    0.5242    1.0808 H         1 <0>         0.1363
     42 H12        -4.9388   -3.0837    0.4265 H         1 <0>         0.1283
     43 H13        -2.8308   -4.3517    0.3487 H         1 <0>         0.1362
     44 H14        -0.9178   -5.9719   -3.3776 H         1 <0>         0.0921
     45 H15        -1.6336   -7.5538   -2.9858 H         1 <0>         0.0839
     46 H16        -4.8958   -6.6708   -6.0156 H         1 <0>         0.0896
     47 H17        -6.2747   -6.9261   -4.9006 H         1 <0>         0.0780
     48 H18        -6.6447   -5.4334   -7.1151 H         1 <0>         0.0768
     49 H19        -7.3312   -4.8609   -5.5589 H         1 <0>         0.0733
     50 H20        -4.7108   -4.0130   -6.9119 H         1 <0>         0.0813
     51 H21        -5.9992   -2.9679   -6.2353 H         1 <0>         0.0749
     52 H22        -3.2588   -2.6580   -5.1596 H         1 <0>         0.3847
     53 H23         2.0518   -6.9234   -1.9849 H         1 <0>         0.3861
     54 H24         2.4134   -7.3887    1.3387 H         1 <0>         0.3872
     55 H25         1.9052   -3.8291   -0.1254 H         1 <0>         0.3835
     56 H26        -6.0633   -1.0752    1.1872 H         1 <0>         0.0569
     57 H27        -5.1548    0.4308    1.4605 H         1 <0>         0.0541
     58 H28        -6.4326    0.5157   -0.5559 H         1 <0>         0.3810
@<TRIPOS>BOND
     1    1    2 1
     2    1   38 1
     3    1   39 1
     4    1   40 1
     5    2    3 1
     6    3    8 ar
     7    3    4 ar
     8    4    5 ar
     9    4   41 1
    10    5    6 ar
    11    5   36 1
    12    6    7 ar
    13    6   42 1
    14    7    8 ar
    15    7   43 1
    16    8    9 1
    17    9   10 1
    18   10   11 1
    19   10   20 1
    20   10   12 1
    21   12   13 1
    22   12   14 1
    23   12   35 1
    24   14   15 1
    25   14   16 1
    26   14   34 1
    27   16   17 1
    28   16   18 1
    29   16   33 1
    30   18   19 1
    31   18   20 1
    32   18   21 1
    33   21   22 1
    34   21   44 1
    35   21   45 1
    36   22   23 1
    37   23   24 2
    38   23   25 1
    39   25   26 1
    40   25   30 1
    41   25   27 1
    42   27   28 1
    43   27   46 1
    44   27   47 1
    45   28   29 1
    46   28   48 1
    47   28   49 1
    48   29   30 1
    49   29   50 1
    50   29   51 1
    51   30   31 1
    52   30   32 1
    53   32   52 1
    54   33   53 1
    55   34   54 1
    56   35   55 1
    57   36   37 1
    58   36   56 1
    59   36   57 1
    60   37   58 1
@<TRIPOS>MOLECULE
ZINC59879188
   42    43     0     0     0
SMALL
USER_CHARGES

@<TRIPOS>ATOM
      1 C1         -0.0187    1.5258    0.0104 C.3       1 <0>        -0.1456
      2 C2          0.0021   -0.0041    0.0020 C.3       1 <0>        -0.1168
      3 H1          0.5123   -0.3556   -0.8948 H         1 <0>         0.1240
      4 C3         -1.4117   -0.5257    0.0127 C.2       1 <0>         0.5409
      5 O1         -1.9390   -0.8271    1.0625 O.2       1 <0>        -0.5168
      6 N1         -2.0902   -0.6573   -1.1443 N.am      1 <0>        -0.5177
      7 N2         -3.4046   -1.1422   -1.1344 N.am      1 <0>        -0.5217
      8 C4         -4.0831   -1.2738   -2.2914 C.2       1 <0>         0.5133
      9 O2         -3.5559   -0.9724   -3.3413 O.2       1 <0>        -0.5442
     10 C5         -5.4969   -1.7954   -2.2807 C.3       1 <0>        -0.1601
     11 S1          0.8794   -0.6050    1.4716 S.3       1 <0>         0.1154
     12 C6          2.5331   -0.0421    1.2407 C.2       1 <0>         0.2195
     13 N3          3.5512   -0.2567    2.0807 N.2       1 <0>        -0.5181
     14 C7          4.6443    0.3009    1.6033 C.2       1 <0>         0.5623
     15 N4          4.3327    0.8905    0.4294 N.pl3     1 <0>        -0.5030
     16 N5          2.9661    0.6505    0.2143 N.2       1 <0>        -0.3192
     17 N6          5.8916    0.2860    2.1997 N.pl3     1 <0>        -0.5493
     18 N7          6.0740   -0.3668    3.4259 N.2       1 <0>        -0.2013
     19 C8          7.2451   -0.3808    3.9859 C.2       1 <0>         0.1087
     20 C9          7.4370   -1.0677    5.2761 C.ar      1 <0>        -0.0662
     21 C10         6.3611   -1.7093    5.8954 C.ar      1 <0>        -0.0592
     22 C11         6.5453   -2.3501    7.1015 C.ar      1 <0>        -0.1498
     23 C12         7.7978   -2.3589    7.7015 C.ar      1 <0>         0.1244
     24 C13         8.8700   -1.7222    7.0900 C.ar      1 <0>        -0.1509
     25 C14         8.6967   -1.0841    5.8808 C.ar      1 <0>        -0.0716
     26 O3          7.9747   -2.9919    8.8907 O.3       1 <0>        -0.4996
     27 H2          1.0039    1.9031    0.0027 H         1 <0>         0.0864
     28 H3         -0.5459    1.8868   -0.8726 H         1 <0>         0.0730
     29 H4         -0.5289    1.8773    0.9072 H         1 <0>         0.0777
     30 H5         -1.6686   -0.4162   -1.9840 H         1 <0>         0.4346
     31 H6         -3.8263   -1.3832   -0.2948 H         1 <0>         0.4343
     32 H7         -5.7970   -2.0107   -1.2552 H         1 <0>         0.0830
     33 H8         -6.1643   -1.0450   -2.7047 H         1 <0>         0.1049
     34 H9         -5.5521   -2.7077   -2.8746 H         1 <0>         0.1050
     35 H10         6.6403    0.7275    1.7692 H         1 <0>         0.4007
     36 H11         8.0788    0.1107    3.5065 H         1 <0>         0.1238
     37 H12         5.3867   -1.7027    5.4297 H         1 <0>         0.1425
     38 H13         5.7143   -2.8459    7.5811 H         1 <0>         0.1347
     39 H14         9.8420   -1.7310    7.5606 H         1 <0>         0.1344
     40 H15         9.5321   -0.5934    5.4036 H         1 <0>         0.1333
     41 H16         8.2254   -3.9221    8.8076 H         1 <0>         0.3949
     42 H17         4.9350    1.3800   -0.1525 H         1 <0>         0.4395
@<TRIPOS>BOND
     1    1    2 1
     2    1   27 1
     3    1   28 1
     4    1   29 1
     5    2    3 1
     6    2    4 1
     7    2   11 1
     8    4    5 2
     9    4    6 am
    10    6    7 1
    11    6   30 1
    12    7    8 am
    13    7   31 1
    14    8    9 2
    15    8   10 1
    16   10   32 1
    17   10   33 1
    18   10   34 1
    19   11   12 1
    20   12   16 2
    21   12   13 1
    22   13   14 2
    23   14   15 1
    24   14   17 1
    25   15   16 1
    26   15   42 1
    27   17   18 1
    28   17   35 1
    29   18   19 2
    30   19   20 1
    31   19   36 1
    32   20   25 ar
    33   20   21 ar
    34   21   22 ar
    35   21   37 1
    36   22   23 ar
    37   22   38 1
    38   23   24 ar
    39   23   26 1
    40   24   25 ar
    41   24   39 1
    42   25   40 1
    43   26   41 1
@<TRIPOS>MOLECULE
ZINC66427449
   47    49     0     0     0
SMALL
USER_CHARGES

@<TRIPOS>ATOM
      1 C1         -2.2299   -0.7085    0.8596 C.3       1 <0>        -0.1191
      2 C2         -0.8378   -1.1335    0.4693 C.ar      1 <0>        -0.0694
      3 C3         -0.6386   -1.8785   -0.6782 C.ar      1 <0>        -0.1294
      4 C4          0.6382   -2.2683   -1.0361 C.ar      1 <0>        -0.1098
      5 C5          1.7163   -1.9128   -0.2469 C.ar      1 <0>        -0.1321
      6 C6          1.5173   -1.1671    0.8997 C.ar      1 <0>        -0.0696
      7 C7          0.2406   -0.7736    1.2554 C.ar      1 <0>        -0.1036
      8 C8          0.0241    0.0438    2.5028 C.3       1 <0>         0.2325
      9 H1         -0.6673    0.8586    2.2879 H         1 <0>         0.1052
     10 C9          1.3611    0.6203    2.9732 C.3       1 <0>        -0.1658
     11 C10         1.1281    1.5361    4.1471 C.2       1 <0>         0.5266
     12 O1          0.0035    1.7106    4.5662 O.2       1 <0>        -0.5335
     13 N1          2.1695    2.1613    4.7311 N.am      1 <0>        -0.7296
     14 C11         1.9430    3.0516    5.8723 C.3       1 <0>         0.2026
     15 C12         3.2599    3.6193    6.3355 C.2       1 <0>         0.2723
     16 N2          3.7775    4.8061    5.9709 N.pl3     1 <0>        -0.4653
     17 H2          3.3787    5.4518    5.3669 H         1 <0>         0.4470
     18 N3          5.0080    4.9274    6.6367 N.2       1 <0>        -0.2814
     19 C13         5.1616    3.8316    7.3505 C.2       1 <0>         0.3125
     20 N4          4.0911    3.0453    7.1645 N.2       1 <0>        -0.5084
     21 C14         6.3189    3.5220    8.2171 C.2       1 <0>        -0.1002
     22 C15         7.4360    4.2733    8.4654 C.2       1 <0>        -0.1086
     23 C16         8.3943    3.7730    9.3197 C.2       1 <0>        -0.1648
     24 C17         8.2031    2.5548    9.8876 C.2       1 <0>        -0.1661
     25 S1          6.6194    2.0746    9.2182 S.3       1 <0>         0.1215
     26 N5         -0.5370   -0.8085    3.5540 N.am      1 <0>        -0.7294
     27 C18         0.1025   -1.9371    3.9195 C.2       1 <0>         0.7064
     28 O2          1.1901   -2.2007    3.4442 O.2       1 <0>        -0.5867
     29 N6         -0.4635   -2.7735    4.8120 N.am      1 <0>        -0.8690
     30 H3         -2.4553    0.2572    0.4072 H         1 <0>         0.0712
     31 H4         -2.9478   -1.4502    0.5093 H         1 <0>         0.0657
     32 H5         -2.2937   -0.6252    1.9445 H         1 <0>         0.0669
     33 H6         -1.4808   -2.1563   -1.2946 H         1 <0>         0.1196
     34 H7          0.7937   -2.8509   -1.9321 H         1 <0>         0.1195
     35 H8          2.7139   -2.2179   -0.5263 H         1 <0>         0.1198
     36 H9          2.3594   -0.8897    1.5163 H         1 <0>         0.1250
     37 H10         2.0222   -0.1930    3.2725 H         1 <0>         0.1237
     38 H11         1.8209    1.1817    2.1599 H         1 <0>         0.1052
     39 H12         3.0690    2.0217    4.3959 H         1 <0>         0.4062
     40 H13         1.2819    3.8649    5.5730 H         1 <0>         0.0970
     41 H14         1.4832    2.4901    6.6855 H         1 <0>         0.1095
     42 H15         7.5639    5.2396    8.0002 H         1 <0>         0.1409
     43 H16         9.2864    4.3426    9.5346 H         1 <0>         0.1411
     44 H17         8.8423    2.0168   10.5720 H         1 <0>         0.1924
     45 H18        -1.3689   -0.5605    3.9868 H         1 <0>         0.4017
     46 H19        -1.3311   -2.5632    5.1912 H         1 <0>         0.3959
     47 H20        -0.0031   -3.5858    5.0751 H         1 <0>         0.4140
@<TRIPOS>BOND
     1    1    2 1
     2    1   30 1
     3    1   31 1
     4    1   32 1
     5    2    7 ar
     6    2    3 ar
     7    3    4 ar
     8    3   33 1
     9    4    5 ar
    10    4   34 1
    11    5    6 ar
    12    5   35 1
    13    6    7 ar
    14    6   36 1
    15    7    8 1
    16    8    9 1
    17    8   10 1
    18    8   26 1
    19   10   11 1
    20   10   37 1
    21   10   38 1
    22   11   12 2
    23   11   13 am
    24   13   14 1
    25   13   39 1
    26   14   15 1
    27   14   40 1
    28   14   41 1
    29   15   20 2
    30   15   16 1
    31   16   17 1
    32   16   18 1
    33   18   19 2
    34   19   20 1
    35   19   21 1
    36   21   25 1
    37   21   22 2
    38   22   23 1
    39   22   42 1
    40   23   24 2
    41   23   43 1
    42   24   25 1
    43   24   44 1
    44   26   27 am
    45   26   45 1
    46   27   28 2
    47   27   29 am
    48   29   46 1
    49   29   47 1
@<TRIPOS>MOLECULE
ZINC11517341
   58    61     0     0     0
SMALL
USER_CHARGES
(8-carbamoyl-6-thiabicyclo[3.3.0]octa-7,9-dien-7-yl)carbamoylmethyl 2-(4-phenoxybenzoyl)aminoacetate
@<TRIPOS>ATOM
      1 C1        -14.4670    3.3991    3.3905 C.ar      1 <0>        -0.1490
      2 C2        -14.8762    4.1332    2.2925 C.ar      1 <0>        -0.0824
      3 C3        -14.0595    4.2318    1.1828 C.ar      1 <0>        -0.1423
      4 C4        -12.8275    3.5935    1.1706 C.ar      1 <0>         0.1171
      5 C5        -12.4216    2.8531    2.2717 C.ar      1 <0>        -0.1941
      6 C6        -13.2399    2.7620    3.3809 C.ar      1 <0>        -0.0816
      7 O1        -12.0224    3.6886    0.0801 O.3       1 <0>        -0.2575
      8 C7        -10.8860    2.9473    0.0606 C.ar      1 <0>         0.1197
      9 C8        -10.9636    1.5613   -0.0147 C.ar      1 <0>        -0.1477
     10 C9         -9.8127    0.8056   -0.0351 C.ar      1 <0>        -0.0374
     11 C10        -8.5656    1.4337    0.0199 C.ar      1 <0>        -0.1409
     12 C11        -8.4919    2.8268    0.1009 C.ar      1 <0>        -0.0656
     13 C12        -9.6472    3.5758    0.1156 C.ar      1 <0>        -0.1291
     14 C13        -7.3295    0.6273   -0.0012 C.2       1 <0>         0.5688
     15 O2         -7.3955   -0.5850   -0.0666 O.2       1 <0>        -0.5250
     16 N1         -6.1276    1.2348    0.0520 N.am      1 <0>        -0.7227
     17 C14        -4.9007    0.4345    0.0309 C.3       1 <0>         0.1302
     18 C15        -3.7040    1.3477    0.1002 C.2       1 <0>         0.4668
     19 O3         -3.8599    2.5443    0.1609 O.2       1 <0>        -0.4995
     20 O4         -2.4648    0.8318    0.0945 O.3       1 <0>        -0.3236
     21 C16        -1.3595    1.7708    0.1636 C.3       1 <0>         0.0569
     22 C17        -0.0560    1.0146    0.1463 C.2       1 <0>         0.5111
     23 O5         -0.0585   -0.1965    0.0820 O.2       1 <0>        -0.4709
     24 N2          1.1124    1.6844    0.1965 N.am      1 <0>        -0.6151
     25 C18         2.3118    0.9889    0.1748 C.2       1 <0>         0.0633
     26 C19         3.6000    1.4941    0.2123 C.2       1 <0>        -0.2084
     27 C20         4.7044    0.5359    0.1809 C.2       1 <0>        -0.0953
     28 C21         4.3375   -0.7562    0.1081 C.2       1 <0>        -0.2295
     29 S1          2.5619   -0.7213    0.0867 S.3       1 <0>         0.2709
     30 C22         5.5257   -1.6790    0.0770 C.3       1 <0>        -0.0328
     31 C23         6.7036   -0.8137    0.5768 C.3       1 <0>        -0.1165
     32 C24         6.2320    0.6054    0.2022 C.3       1 <0>        -0.0614
     33 C25         3.8482    2.9374    0.2848 C.2       1 <0>         0.5822
     34 O6          3.9412    3.4852    1.3677 O.2       1 <0>        -0.5320
     35 N3          3.9735    3.6574   -0.8476 N.am      1 <0>        -0.8472
     36 H1        -15.1072    3.3229    4.2569 H         1 <0>         0.1269
     37 H2        -15.8350    4.6301    2.3026 H         1 <0>         0.1330
     38 H3        -14.3797    4.8050    0.3253 H         1 <0>         0.1338
     39 H4        -11.4650    2.3519    2.2632 H         1 <0>         0.1291
     40 H5        -12.9228    2.1890    4.2397 H         1 <0>         0.1276
     41 H6        -11.9278    1.0766   -0.0576 H         1 <0>         0.1404
     42 H7         -9.8738   -0.2711   -0.0940 H         1 <0>         0.1470
     43 H8         -7.5299    3.3155    0.1477 H         1 <0>         0.1371
     44 H9         -9.5910    4.6528    0.1736 H         1 <0>         0.1422
     45 H10        -6.0749    2.2020    0.1041 H         1 <0>         0.4124
     46 H11        -4.8616   -0.1464   -0.8905 H         1 <0>         0.1219
     47 H12        -4.8926   -0.2406    0.8867 H         1 <0>         0.1219
     48 H13        -1.4315    2.3497    1.0844 H         1 <0>         0.1157
     49 H14        -1.4004    2.4439   -0.6928 H         1 <0>         0.1153
     50 H15         1.1143    2.6531    0.2479 H         1 <0>         0.4223
     51 H16         5.3665   -2.5262    0.7441 H         1 <0>         0.0809
     52 H17         5.7123   -2.0244   -0.9398 H         1 <0>         0.0865
     53 H18         6.8293   -0.9111    1.6551 H         1 <0>         0.0780
     54 H19         7.6250   -1.0694    0.0535 H         1 <0>         0.0853
     55 H20         6.5664    1.3238    0.9507 H         1 <0>         0.0744
     56 H21         6.6120    0.8818   -0.7813 H         1 <0>         0.0809
     57 H22         3.8995    3.2208   -1.7106 H         1 <0>         0.4039
     58 H23         4.1377    4.6122   -0.7996 H         1 <0>         0.4041
@<TRIPOS>BOND
     1    1    6 ar
     2    1    2 ar
     3    1   36 1
     4    2    3 ar
     5    2   37 1
     6    3    4 ar
     7    3   38 1
     8    4    5 ar
     9    4    7 1
    10    5    6 ar
    11    5   39 1
    12    6   40 1
    13    7    8 1
    14    8   13 ar
    15    8    9 ar
    16    9   10 ar
    17    9   41 1
    18   10   11 ar
    19   10   42 1
    20   11   12 ar
    21   11   14 1
    22   12   13 ar
    23   12   43 1
    24   13   44 1
    25   14   15 2
    26   14   16 am
    27   16   17 1
    28   16   45 1
    29   17   18 1
    30   17   46 1
    31   17   47 1
    32   18   19 2
    33   18   20 1
    34   20   21 1
    35   21   22 1
    36   21   48 1
    37   21   49 1
    38   22   23 2
    39   22   24 am
    40   24   25 1
    41   24   50 1
    42   25   29 1
    43   25   26 2
    44   26   27 1
    45   26   33 1
    46   27   32 1
    47   27   28 2
    48   28   29 1
    49   28   30 1
    50   30   31 1
    51   30   51 1
    52   30   52 1
    53   31   32 1
    54   31   53 1
    55   31   54 1
    56   32   55 1
    57   32   56 1
    58   33   34 2
    59   33   35 am
    60   35   57 1
    61   35   58 1
@<TRIPOS>MOLECULE
ZINC02794161
   55    58     0     0     0
SMALL
USER_CHARGES
3-(2-furylmethyl)-1-[[(5R,7R)-5-(4-methoxyphenyl)-7-(trifluoromethyl)4,5,6,7-tetrahydropyrazolo[1,5-a]pyrimidine-3-carbonyl]amino]thiourea
@<TRIPOS>ATOM
      1 C1         -2.4091    5.1385    0.5511 C.3       1 <0>         0.0225
      2 O1         -2.4215    3.8021    0.0452 O.3       1 <0>        -0.3147
      3 C2         -1.2366    3.1368    0.0307 C.ar      1 <0>         0.1369
      4 C3         -0.0866    3.7554    0.4992 C.ar      1 <0>        -0.2029
      5 C4          1.1178    3.0792    0.4777 C.ar      1 <0>        -0.0664
      6 C5          1.1757    1.7828    0.0004 C.ar      1 <0>        -0.1620
      7 C6          0.0298    1.1618   -0.4614 C.ar      1 <0>        -0.0660
      8 C7         -1.1760    1.8358   -0.4473 C.ar      1 <0>        -0.1492
      9 C8          2.4897    1.0452   -0.0161 C.3       1 <0>         0.1782
     10 H1          2.3658    0.0565    0.4498 H         1 <0>         0.1236
     11 C9          2.9827    0.9129   -1.4608 C.3       1 <0>        -0.1500
     12 C10         2.9928    2.3041   -2.1106 C.3       1 <0>         0.1308
     13 H2          1.9743    2.6632   -2.3197 H         1 <0>         0.1382
     14 N1          3.6234    3.2355   -1.1661 N.pl3     1 <0>        -0.3961
     15 C11         3.8279    2.9650    0.1419 C.2       1 <0>         0.4664
     16 C12         4.4414    4.0790    0.6998 C.2       1 <0>        -0.3676
     17 C13         4.5936    5.0289   -0.3396 C.2       1 <0>         0.1117
     18 N2          4.1059    4.5162   -1.4356 N.2       1 <0>        -0.2763
     19 C14         4.8529    4.2411    2.0993 C.2       1 <0>         0.6207
     20 O2          4.6629    3.3424    2.8974 O.2       1 <0>        -0.5513
     21 N3          5.4411    5.3855    2.5005 N.am      1 <0>        -0.5571
     22 N4          5.8338    5.5403    3.8364 N.pl3     1 <0>        -0.4739
     23 C15         6.4220    6.6846    4.2376 C.2       1 <0>         0.5689
     24 S1          6.9020    6.8738    5.8700 S.2       1 <0>        -0.6098
     25 N5          6.6324    7.6801    3.3536 N.pl3     1 <0>        -0.6951
     26 C16         7.2717    8.9240    3.7897 C.3       1 <0>         0.2123
     27 C17         7.3890    9.8657    2.6191 C.2       1 <0>        -0.0510
     28 C18         6.4716   10.7765    2.2472 C.2       1 <0>        -0.1734
     29 C19         6.9874   11.4358    1.1078 C.2       1 <0>        -0.2191
     30 C20         8.1892   10.8884    0.8516 C.2       1 <0>        -0.0203
     31 O3          8.4297    9.9420    1.7736 O.3       1 <0>        -0.1700
     32 N6          3.4800    1.7908    0.7756 N.pl3     1 <0>        -0.7056
     33 C21         3.7952    2.2622   -3.4127 C.3       1 <0>         0.4547
     34 F1          3.2094    1.3452   -4.2920 F         1 <0>        -0.1711
     35 F2          3.8000    3.5325   -3.9986 F         1 <0>        -0.1603
     36 F3          5.1098    1.8704   -3.1379 F         1 <0>        -0.1737
     37 H3         -3.4254    5.5570    0.5062 H         1 <0>         0.1054
     38 H4         -1.7315    5.7548   -0.0580 H         1 <0>         0.0573
     39 H5         -2.0608    5.1323    1.5945 H         1 <0>         0.0579
     40 H6         -0.1321    4.7663    0.8766 H         1 <0>         0.1282
     41 H7          2.0141    3.5619    0.8382 H         1 <0>         0.1302
     42 H8          0.0775    0.1489   -0.8330 H         1 <0>         0.1349
     43 H9         -2.0708    1.3502   -0.8077 H         1 <0>         0.1358
     44 H10         3.9994    0.4929   -1.4643 H         1 <0>         0.1052
     45 H11         2.3087    0.2462   -2.0187 H         1 <0>         0.1252
     46 H12         5.0374    6.0086   -0.2419 H         1 <0>         0.1889
     47 H13         5.6128    6.1979    1.7791 H         1 <0>         0.4342
     48 H14         5.6620    4.7279    4.5578 H         1 <0>         0.4898
     49 H15         6.3241    7.5585    2.3047 H         1 <0>         0.4080
     50 H16         6.6633    9.3923    4.5775 H         1 <0>         0.1202
     51 H17         8.2744    8.7023    4.1839 H         1 <0>         0.1064
     52 H18         5.5228   10.9671    2.7266 H         1 <0>         0.1525
     53 H19         6.5083   12.2268    0.5500 H         1 <0>         0.1527
     54 H20         8.8502   11.1658    0.0438 H         1 <0>         0.2071
     55 H21         3.8362    1.3851    1.7340 H         1 <0>         0.4784
@<TRIPOS>BOND
     1    1    2 1
     2    1   37 1
     3    1   38 1
     4    1   39 1
     5    2    3 1
     6    3    8 ar
     7    3    4 ar
     8    4    5 ar
     9    4   40 1
    10    5    6 ar
    11    5   41 1
    12    6    7 ar
    13    6    9 1
    14    7    8 ar
    15    7   42 1
    16    8   43 1
    17    9   10 1
    18    9   32 1
    19    9   11 1
    20   11   12 1
    21   11   44 1
    22   11   45 1
    23   12   13 1
    24   12   14 1
    25   12   33 1
    26   14   18 1
    27   14   15 1
    28   15   16 2
    29   15   32 1
    30   16   17 1
    31   16   19 1
    32   17   18 2
    33   17   46 1
    34   19   20 2
    35   19   21 am
    36   21   22 1
    37   21   47 1
    38   22   23 1
    39   22   48 1
    40   23   24 2
    41   23   25 1
    42   25   26 1
    43   25   49 1
    44   26   27 1
    45   26   50 1
    46   26   51 1
    47   27   31 1
    48   27   28 2
    49   28   29 1
    50   28   52 1
    51   29   30 2
    52   29   53 1
    53   30   31 1
    54   30   54 1
    55   32   55 1
    56   33   34 1
    57   33   35 1
    58   33   36 1
@<TRIPOS>MOLECULE
ZINC33590982
   53    55     0     0     0
SMALL
USER_CHARGES
(2E)-2-(carbamothioylhydrazono)-N-(2-ethoxyphenyl)-2-[(4R)-3-methyl-5-oxo-1-phenyl-4H-pyrazol-4-yl]acetamide
@<TRIPOS>ATOM
      1 C1         -5.4420    2.2381    2.8171 C.3       1 <0>        -0.1546
      2 C2         -4.6084    3.3850    2.2422 C.3       1 <0>         0.0541
      3 O1         -3.5069    2.8505    1.5053 O.3       1 <0>        -0.3185
      4 C3         -2.6610    3.7431    0.9250 C.ar      1 <0>         0.1131
      5 C4         -2.8827    5.1033    1.0670 C.ar      1 <0>        -0.1926
      6 C5         -2.0250    6.0096    0.4716 C.ar      1 <0>        -0.0867
      7 C6         -0.9412    5.5628   -0.2618 C.ar      1 <0>        -0.1374
      8 C7         -0.7094    4.2078   -0.4031 C.ar      1 <0>        -0.0812
      9 C8         -1.5658    3.2922    0.1914 C.ar      1 <0>         0.1102
     10 N1         -1.3331    1.9187    0.0498 N.am      1 <0>        -0.6483
     11 C9         -0.0701    1.4510   -0.0015 C.2       1 <0>         0.5710
     12 O2          0.8667    2.2278   -0.0081 O.2       1 <0>        -0.4923
     13 C10         0.1749    0.0070   -0.0553 C.2       1 <0>         0.1171
     14 N2         -0.8269   -0.8237   -0.0482 N.2       1 <0>        -0.2083
     15 N3         -0.5924   -2.2034    0.0167 N.pl3     1 <0>        -0.5474
     16 C11        -1.6220   -3.0674   -0.0829 C.2       1 <0>         0.6027
     17 S1         -1.3354   -4.7534   -0.0037 S.2       1 <0>        -0.6029
     18 N4         -2.8772   -2.6041   -0.2449 N.pl3     1 <0>        -0.8054
     19 C12         1.5869   -0.5158   -0.1188 C.3       1 <0>        -0.1274
     20 H1          1.5013   -1.6098   -0.1947 H         1 <0>         0.1435
     21 C13         2.3318    0.1014   -1.2840 C.2       1 <0>         0.1215
     22 N5          3.3170    0.7511   -0.7993 N.2       1 <0>        -0.1968
     23 N6          3.3862    0.6854    0.5889 N.am      1 <0>        -0.3927
     24 C14         2.3786   -0.0637    1.0933 C.2       1 <0>         0.5200
     25 O3          2.1553   -0.3182    2.2581 O.2       1 <0>        -0.4634
     26 C15         4.3708    1.3109    1.3629 C.ar      1 <0>         0.1675
     27 C16         4.3495    1.1900    2.7464 C.ar      1 <0>        -0.1495
     28 C17         5.3256    1.8035    3.5067 C.ar      1 <0>        -0.0933
     29 C18         6.3169    2.5470    2.8928 C.ar      1 <0>        -0.1337
     30 C19         6.3376    2.6741    1.5160 C.ar      1 <0>        -0.0974
     31 C20         5.3677    2.0584    0.7495 C.ar      1 <0>        -0.1257
     32 C21         1.9758   -0.0274   -2.7426 C.3       1 <0>        -0.0850
     33 H2         -6.2899    2.6496    3.3843 H         1 <0>         0.0817
     34 H3         -4.8155    1.6283    3.4848 H         1 <0>         0.0668
     35 H4         -5.8199    1.6118    1.9955 H         1 <0>         0.0669
     36 H5         -5.2348    3.9948    1.5745 H         1 <0>         0.0652
     37 H6         -4.2305    4.0113    3.0637 H         1 <0>         0.0643
     38 H7         -3.7284    5.4557    1.6388 H         1 <0>         0.1333
     39 H8         -2.2018    7.0695    0.5800 H         1 <0>         0.1288
     40 H9         -0.2740    6.2746   -0.7250 H         1 <0>         0.1301
     41 H10         0.1378    3.8616   -0.9765 H         1 <0>         0.1462
     42 H11        -2.1811    1.2215   -0.0196 H         1 <0>         0.4438
     43 H12         0.4321   -2.5815    0.1489 H         1 <0>         0.4469
     44 H13        -3.7175   -3.3092   -0.3262 H         1 <0>         0.4634
     45 H14        -3.0613   -1.5208   -0.2958 H         1 <0>         0.4271
     46 H15         3.5730    0.6131    3.2267 H         1 <0>         0.1478
     47 H16         5.3122    1.7061    4.5822 H         1 <0>         0.1303
     48 H17         7.0763    3.0298    3.4900 H         1 <0>         0.1268
     49 H18         7.1129    3.2558    1.0396 H         1 <0>         0.1306
     50 H19         5.3843    2.1583   -0.3258 H         1 <0>         0.1360
     51 H20         2.7039    0.5319   -3.3485 H         1 <0>         0.0986
     52 H21         0.9682    0.3802   -2.9114 H         1 <0>         0.0892
     53 H22         1.9955   -1.0883   -3.0325 H         1 <0>         0.0959
@<TRIPOS>BOND
     1    1    2 1
     2    1   33 1
     3    1   34 1
     4    1   35 1
     5    2    3 1
     6    2   36 1
     7    2   37 1
     8    3    4 1
     9    4    9 ar
    10    4    5 ar
    11    5    6 ar
    12    5   38 1
    13    6    7 ar
    14    6   39 1
    15    7    8 ar
    16    7   40 1
    17    8    9 ar
    18    8   41 1
    19    9   10 1
    20   10   11 am
    21   10   42 1
    22   11   12 2
    23   11   13 1
    24   13   14 2
    25   13   19 1
    26   14   15 1
    27   15   16 1
    28   15   43 1
    29   16   17 2
    30   16   18 1
    31   18   44 1
    32   18   45 1
    33   19   20 1
    34   19   24 1
    35   19   21 1
    36   21   22 2
    37   21   32 1
    38   22   23 1
    39   23   24 am
    40   23   26 1
    41   24   25 2
    42   26   31 ar
    43   26   27 ar
    44   27   28 ar
    45   27   46 1
    46   28   29 ar
    47   28   47 1
    48   29   30 ar
    49   29   48 1
    50   30   31 ar
    51   30   49 1
    52   31   50 1
    53   32   51 1
    54   32   52 1
    55   32   53 1
@<TRIPOS>MOLECULE
ZINC40087162
   55    57     0     0     0
SMALL
USER_CHARGES

@<TRIPOS>ATOM
      1 C1         -0.0167    1.3786    0.0096 C.ar      1 <0>        -0.1187
      2 C2          1.1696    2.0891    0.0021 C.ar      1 <0>        -0.0945
      3 C3          2.3774    1.4192   -0.0130 C.ar      1 <0>        -0.1050
      4 C4          2.3995    0.0308   -0.0207 C.ar      1 <0>         0.1514
      5 C5          1.2066   -0.6797   -0.0132 C.ar      1 <0>        -0.1470
      6 C6          0.0021   -0.0041    0.0020 C.ar      1 <0>        -0.0923
      7 N1          3.6232   -0.6518   -0.0366 N.pl3     1 <0>        -0.3397
      8 C7          3.8807   -1.8278    0.5794 C.2       1 <0>         0.4343
      9 C8          5.2083   -2.1488    0.3095 C.2       1 <0>        -0.2553
     10 C9          5.7299   -1.1095   -0.4958 C.2       1 <0>         0.1651
     11 N2          4.7839   -0.2351   -0.6973 N.2       1 <0>        -0.2834
     12 C10         7.1354   -1.0295   -1.0333 C.3       1 <0>        -0.0423
     13 C11         7.1983   -1.7136   -2.4004 C.3       1 <0>        -0.1251
     14 C12         8.6254   -1.6324   -2.9462 C.3       1 <0>         0.1186
     15 N3          8.6855   -2.2874   -4.2552 N.am      1 <0>        -0.7325
     16 C13         9.8510   -2.3385   -4.9303 C.2       1 <0>         0.5135
     17 O1         10.8499   -1.8422   -4.4540 O.2       1 <0>        -0.5384
     18 C14         9.9129   -3.0122   -6.2768 C.3       1 <0>        -0.1383
     19 C15        11.3399   -2.9311   -6.8226 C.3       1 <0>        -0.1171
     20 C16        11.4028   -3.6151   -8.1897 C.3       1 <0>         0.1193
     21 N4         12.7692   -3.5374   -8.7123 N.am      1 <0>        -0.7271
     22 C17        13.0637   -4.0770   -9.9117 C.2       1 <0>         0.5744
     23 O2         12.1950   -4.6286  -10.5602 O.2       1 <0>        -0.5384
     24 C18        14.4366   -3.9989  -10.4367 C.2       1 <0>        -0.1863
     25 C19        14.7879   -4.5601  -11.7188 C.2       1 <0>        -0.1050
     26 C20        16.0780   -4.4217  -12.0848 C.2       1 <0>        -0.2108
     27 S1         16.7953   -3.5461  -10.7115 S.3       1 <0>         0.1926
     28 C21        15.4443   -3.3820   -9.7301 C.2       1 <0>        -0.2131
     29 C22         5.9125   -3.3106    0.7621 C.1       1 <0>         0.2931
     30 N5          6.4712   -4.2323    1.1211 N.1       1 <0>        -0.4367
     31 N6          2.9935   -2.5708    1.3342 N.pl3     1 <0>        -0.8340
     32 H1         -0.9598    1.9047    0.0260 H         1 <0>         0.1326
     33 H2          1.1518    3.1689    0.0077 H         1 <0>         0.1360
     34 H3          3.3036    1.9746   -0.0193 H         1 <0>         0.1383
     35 H4          1.2206   -1.7596   -0.0195 H         1 <0>         0.1297
     36 H5         -0.9261   -0.5562    0.0083 H         1 <0>         0.1359
     37 H6          7.4261    0.0159   -1.1364 H         1 <0>         0.0954
     38 H7          7.8167   -1.5298   -0.3450 H         1 <0>         0.0918
     39 H8          6.9077   -2.7590   -2.2973 H         1 <0>         0.0742
     40 H9          6.5171   -1.2133   -3.0887 H         1 <0>         0.0782
     41 H10         8.9160   -0.5869   -3.0493 H         1 <0>         0.0724
     42 H11         9.3066   -2.1327   -2.2579 H         1 <0>         0.0707
     43 H12         7.8866   -2.6843   -4.6362 H         1 <0>         0.4023
     44 H13         9.6222   -4.0577   -6.1737 H         1 <0>         0.0988
     45 H14         9.2317   -2.5119   -6.9651 H         1 <0>         0.0990
     46 H15        11.6306   -1.8856   -6.9257 H         1 <0>         0.0786
     47 H16        12.0212   -3.4314   -6.1343 H         1 <0>         0.0785
     48 H17        11.1121   -4.6606   -8.0866 H         1 <0>         0.0706
     49 H18        10.7216   -3.1148   -8.8780 H         1 <0>         0.0707
     50 H19        13.4620   -3.0976   -8.1951 H         1 <0>         0.4001
     51 H20        14.0636   -5.0595  -12.3451 H         1 <0>         0.1514
     52 H21        16.5590   -4.7598  -12.9907 H         1 <0>         0.1915
     53 H22        15.3803   -2.9034   -8.7641 H         1 <0>         0.1890
     54 H23         2.0846   -2.2571    1.4625 H         1 <0>         0.4104
     55 H24         3.2794   -3.4062    1.7358 H         1 <0>         0.4229
@<TRIPOS>BOND
     1    1    6 ar
     2    1    2 ar
     3    1   32 1
     4    2    3 ar
     5    2   33 1
     6    3    4 ar
     7    3   34 1
     8    4    5 ar
     9    4    7 1
    10    5    6 ar
    11    5   35 1
    12    6   36 1
    13    7   11 1
    14    7    8 1
    15    8    9 2
    16    8   31 1
    17    9   10 1
    18    9   29 1
    19   10   11 2
    20   10   12 1
    21   12   13 1
    22   12   37 1
    23   12   38 1
    24   13   14 1
    25   13   39 1
    26   13   40 1
    27   14   15 1
    28   14   41 1
    29   14   42 1
    30   15   16 am
    31   15   43 1
    32   16   17 2
    33   16   18 1
    34   18   19 1
    35   18   44 1
    36   18   45 1
    37   19   20 1
    38   19   46 1
    39   19   47 1
    40   20   21 1
    41   20   48 1
    42   20   49 1
    43   21   22 am
    44   21   50 1
    45   22   23 2
    46   22   24 1
    47   24   28 2
    48   24   25 1
    49   25   26 2
    50   25   51 1
    51   26   27 1
    52   26   52 1
    53   27   28 1
    54   28   53 1
    55   29   30 3
    56   31   54 1
    57   31   55 1
@<TRIPOS>MOLECULE
ZINC20292216
   46    48     0     0     0
SMALL
USER_CHARGES

@<TRIPOS>ATOM
      1 C1         -0.0167    1.3792    0.0096 C.ar      1 <0>        -0.1161
      2 C2          1.1664    2.0886    0.0021 C.ar      1 <0>        -0.0756
      3 C3          2.3859    1.4073   -0.0132 C.ar      1 <0>        -0.0448
      4 C4          2.3980    0.0101   -0.0208 C.ar      1 <0>        -0.0526
      5 C5          1.2069   -0.6867   -0.0132 C.ar      1 <0>        -0.0953
      6 C6          0.0021   -0.0041    0.0020 C.ar      1 <0>        -0.0761
      7 Br1         1.2200   -2.5776   -0.0241 Br        1 <0>        -0.0428
      8 C7          3.6541    2.1589   -0.0217 C.2       1 <0>         0.0999
      9 N1          4.7860    1.5225   -0.0360 N.2       1 <0>        -0.1982
     10 N2          5.9912    2.2368   -0.0441 N.pl3     1 <0>        -0.5423
     11 C8          7.2006    1.5569   -0.0593 C.2       1 <0>         0.5276
     12 N3          7.3524    0.2548   -0.0731 N.2       1 <0>        -0.3163
     13 N4          8.7260   -0.0207   -0.0864 N.2       1 <0>        -0.2934
     14 C9          9.3687    1.1228   -0.0803 C.2       1 <0>         0.1542
     15 N5          8.4432    2.1272   -0.0686 N.pl3     1 <0>        -0.3461
     16 N6          8.7119    3.4665   -0.0637 N.3       1 <0>        -0.5944
     17 S1         11.1188    1.3272   -0.0919 S.3       1 <0>         0.0701
     18 C10        11.7587   -0.3701   -0.1141 C.3       1 <0>        -0.1414
     19 C11        13.2653   -0.3388   -0.1255 C.2       1 <0>         0.5372
     20 O1         13.8498    0.7239   -0.1193 O.2       1 <0>        -0.5211
     21 N7         13.9632   -1.4916   -0.1426 N.am      1 <0>        -0.7184
     22 C12        15.4279   -1.4612   -0.1537 C.3       1 <0>         0.1641
     23 C13        15.9595   -2.8712   -0.1721 C.ar      1 <0>        -0.1264
     24 C14        16.2071   -3.5316    1.0169 C.ar      1 <0>        -0.0687
     25 C15        16.6942   -4.8248    1.0012 C.ar      1 <0>        -0.1553
     26 C16        16.9342   -5.4590   -0.2060 C.ar      1 <0>         0.1108
     27 C17        16.6859   -4.7966   -1.3962 C.ar      1 <0>        -0.1552
     28 C18        16.1938   -3.5053   -1.3780 C.ar      1 <0>        -0.0686
     29 F1         17.4108   -6.7230   -0.2225 F         1 <0>        -0.1359
     30 H1         -0.9599    1.9049    0.0260 H         1 <0>         0.1384
     31 H2          1.1499    3.1685    0.0078 H         1 <0>         0.1363
     32 H3          3.3371   -0.5231   -0.0330 H         1 <0>         0.1470
     33 H4         -0.9273   -0.5542    0.0080 H         1 <0>         0.1361
     34 H5          3.6419    3.2389   -0.0162 H         1 <0>         0.1278
     35 H6          5.9802    3.2068   -0.0391 H         1 <0>         0.4050
     36 H7          8.7924    3.8157    0.8795 H         1 <0>         0.3635
     37 H8          9.5438    3.6704   -0.5970 H         1 <0>         0.3801
     38 H9         11.4130   -0.9003    0.7733 H         1 <0>         0.1303
     39 H10        11.3992   -0.8823   -1.0065 H         1 <0>         0.1306
     40 H11        13.4957   -2.3415   -0.1476 H         1 <0>         0.4074
     41 H12        15.7735   -0.9309   -1.0411 H         1 <0>         0.0836
     42 H13        15.7874   -0.9490    0.7387 H         1 <0>         0.0835
     43 H14        16.0201   -3.0366    1.9584 H         1 <0>         0.1363
     44 H15        16.8878   -5.3404    1.9302 H         1 <0>         0.1395
     45 H16        16.8730   -5.2902   -2.3384 H         1 <0>         0.1395
     46 H17        15.9958   -2.9900   -2.3063 H         1 <0>         0.1364
@<TRIPOS>BOND
     1    1    6 ar
     2    1    2 ar
     3    1   30 1
     4    2    3 ar
     5    2   31 1
     6    3    4 ar
     7    3    8 1
     8    4    5 ar
     9    4   32 1
    10    5    6 ar
    11    5    7 1
    12    6   33 1
    13    8    9 2
    14    8   34 1
    15    9   10 1
    16   10   11 1
    17   10   35 1
    18   11   15 1
    19   11   12 2
    20   12   13 1
    21   13   14 2
    22   14   15 1
    23   14   17 1
    24   15   16 1
    25   16   36 1
    26   16   37 1
    27   17   18 1
    28   18   19 1
    29   18   38 1
    30   18   39 1
    31   19   20 2
    32   19   21 am
    33   21   22 1
    34   21   40 1
    35   22   23 1
    36   22   41 1
    37   22   42 1
    38   23   28 ar
    39   23   24 ar
    40   24   25 ar
    41   24   43 1
    42   25   26 ar
    43   25   44 1
    44   26   27 ar
    45   26   29 1
    46   27   28 ar
    47   27   45 1
    48   28   46 1
@<TRIPOS>MOLECULE
ZINC13683402
   59    62     0     0     0
SMALL
USER_CHARGES
N-[4-[(3S)-3-ethyl-2,6-dioxo-3-piperidyl]phenyl]-N'-[2-(1H-indol-3-yl)ethyl]oxamide
@<TRIPOS>ATOM
      1 C1        -11.4514   -4.6898   -3.4495 C.3       1 <0>        -0.1539
      2 C2        -11.1104   -5.9918   -4.1771 C.3       1 <0>        -0.1105
      3 C3         -9.9650   -6.6981   -3.4490 C.3       1 <0>        -0.0316
      4 C4        -10.3483   -6.9193   -1.9819 C.3       1 <0>        -0.1259
      5 C5        -11.5454   -7.8749   -1.9293 C.3       1 <0>        -0.1450
      6 C6        -11.1963   -9.1444   -2.6601 C.2       1 <0>         0.5234
      7 O1        -11.7154  -10.1866   -2.3224 O.2       1 <0>        -0.5002
      8 N1        -10.3224   -9.1444   -3.6777 N.am      1 <0>        -0.6745
      9 C7         -9.7025   -8.0315   -4.0978 C.2       1 <0>         0.5318
     10 O2         -8.9155   -8.1004   -5.0173 O.2       1 <0>        -0.4838
     11 C8         -8.7221   -5.8490   -3.5223 C.ar      1 <0>        -0.0855
     12 C9         -8.2444   -5.4299   -4.7506 C.ar      1 <0>        -0.0638
     13 C10        -7.1058   -4.6517   -4.8214 C.ar      1 <0>        -0.1176
     14 C11        -6.4400   -4.2900   -3.6569 C.ar      1 <0>         0.1430
     15 C12        -6.9195   -4.7175   -2.4251 C.ar      1 <0>        -0.1385
     16 C13        -8.0622   -5.4903   -2.3611 C.ar      1 <0>        -0.0937
     17 N2         -5.2877   -3.5027   -3.7249 N.am      1 <0>        -0.6442
     18 C14        -5.1816   -2.5433   -4.6655 C.2       1 <0>         0.5088
     19 O3         -6.0522   -2.4138   -5.5012 O.2       1 <0>        -0.4971
     20 C15        -3.9926   -1.6394   -4.6794 C.2       1 <0>         0.5095
     21 O4         -3.1221   -1.7689   -3.8438 O.2       1 <0>        -0.5140
     22 N3         -3.8865   -0.6800   -5.6200 N.am      1 <0>        -0.6974
     23 C16        -2.7203    0.2065   -5.6337 C.3       1 <0>         0.1213
     24 C17        -2.8461    1.1969   -6.7932 C.3       1 <0>        -0.0534
     25 C18        -1.6464    2.1089   -6.8072 C.2       1 <0>        -0.1749
     26 C19        -1.5617    3.3255   -6.2464 C.2       1 <0>         0.0637
     27 N4         -0.3188    3.8544   -6.4647 N.pl3     1 <0>        -0.5943
     28 H1         -0.0210    4.7241   -6.1551 H         1 <0>         0.4175
     29 C20         0.4462    2.9685   -7.1899 C.ar      1 <0>         0.0947
     30 C21        -0.3519    1.8361   -7.4362 C.ar      1 <0>        -0.1003
     31 C22         0.1666    0.7636   -8.1638 C.ar      1 <0>        -0.0721
     32 C23         1.4517    0.8153   -8.6260 C.ar      1 <0>        -0.1438
     33 C24         2.2429    1.9299   -8.3856 C.ar      1 <0>        -0.0977
     34 C25         1.7498    3.0016   -7.6736 C.ar      1 <0>        -0.1299
     35 H2        -11.6766   -4.9056   -2.4050 H         1 <0>         0.0634
     36 H3        -10.6017   -4.0094   -3.5048 H         1 <0>         0.0636
     37 H4        -12.3188   -4.2270   -3.9201 H         1 <0>         0.0631
     38 H5        -10.8074   -5.7678   -5.1999 H         1 <0>         0.0794
     39 H6        -11.9864   -6.6402   -4.1914 H         1 <0>         0.0717
     40 H7         -9.5063   -7.3571   -1.4456 H         1 <0>         0.0851
     41 H8        -10.6201   -5.9668   -1.5269 H         1 <0>         0.1071
     42 H9        -12.4074   -7.4064   -2.4043 H         1 <0>         0.1159
     43 H10       -11.7815   -8.1057   -0.8905 H         1 <0>         0.1188
     44 H11       -10.1309   -9.9823   -4.1274 H         1 <0>         0.4137
     45 H12        -8.7622   -5.7118   -5.6555 H         1 <0>         0.1306
     46 H13        -6.7334   -4.3245   -5.7809 H         1 <0>         0.1409
     47 H14        -6.4019   -4.4418   -1.5182 H         1 <0>         0.1309
     48 H15        -8.4380   -5.8193   -1.4036 H         1 <0>         0.1341
     49 H16        -4.5641   -3.6466   -3.0951 H         1 <0>         0.4240
     50 H17        -4.5823   -0.5765   -6.2879 H         1 <0>         0.4142
     51 H18        -1.8144   -0.3866   -5.7592 H         1 <0>         0.0771
     52 H19        -2.6688    0.7538   -4.6924 H         1 <0>         0.0756
     53 H20        -3.7519    1.7900   -6.6677 H         1 <0>         0.0797
     54 H21        -2.8975    0.6497   -7.7344 H         1 <0>         0.0802
     55 H22        -2.3569    3.8145   -5.7033 H         1 <0>         0.1712
     56 H23        -0.4449   -0.1050   -8.3588 H         1 <0>         0.1207
     57 H24         1.8536   -0.0164   -9.1855 H         1 <0>         0.1229
     58 H25         3.2555    1.9574   -8.7601 H         1 <0>         0.1257
     59 H26         2.3735    3.8643   -7.4915 H         1 <0>         0.1201
@<TRIPOS>BOND
     1    1    2 1
     2    1   35 1
     3    1   36 1
     4    1   37 1
     5    2    3 1
     6    2   38 1
     7    2   39 1
     8    3    9 1
     9    3    4 1
    10    3   11 1
    11    4    5 1
    12    4   40 1
    13    4   41 1
    14    5    6 1
    15    5   42 1
    16    5   43 1
    17    6    7 2
    18    6    8 am
    19    8    9 am
    20    8   44 1
    21    9   10 2
    22   11   16 ar
    23   11   12 ar
    24   12   13 ar
    25   12   45 1
    26   13   14 ar
    27   13   46 1
    28   14   15 ar
    29   14   17 1
    30   15   16 ar
    31   15   47 1
    32   16   48 1
    33   17   18 am
    34   17   49 1
    35   18   19 2
    36   18   20 1
    37   20   21 2
    38   20   22 am
    39   22   23 1
    40   22   50 1
    41   23   24 1
    42   23   51 1
    43   23   52 1
    44   24   25 1
    45   24   53 1
    46   24   54 1
    47   25   30 1
    48   25   26 2
    49   26   27 1
    50   26   55 1
    51   27   28 1
    52   27   29 1
    53   29   34 ar
    54   29   30 ar
    55   30   31 ar
    56   31   32 ar
    57   31   56 1
    58   32   33 ar
    59   32   57 1
    60   33   34 ar
    61   33   58 1
    62   34   59 1
@<TRIPOS>MOLECULE
ZINC15898751
   55    57     0     0     0
SMALL
USER_CHARGES
1-[[4-(styrylsulfonylamino)benzoyl]amino]-3-[[(2R)-tetrahydrofuran-2-yl]methyl]thiourea
@<TRIPOS>ATOM
      1 C1         -1.1245   -3.2116   -6.0764 C.ar      1 <0>        -0.0947
      2 C2         -2.3714   -3.6148   -5.6328 C.ar      1 <0>        -0.1255
      3 C3         -3.0277   -2.8908   -4.6587 C.ar      1 <0>        -0.0848
      4 C4         -2.4310   -1.7500   -4.1207 C.ar      1 <0>        -0.1042
      5 C5         -1.1756   -1.3457   -4.5762 C.ar      1 <0>        -0.0857
      6 C6         -0.5273   -2.0817   -5.5467 C.ar      1 <0>        -0.1257
      7 C7         -3.1284   -0.9697   -3.0768 C.2       1 <0>         0.0710
      8 C8         -2.5589    0.1137   -2.5676 C.2       1 <0>        -0.7586
      9 S1         -3.3903    1.0439   -1.3233 S.o2      1 <0>         2.6808
     10 O1         -4.6147    0.3712   -1.0635 O.2       1 <0>        -0.9542
     11 O2         -3.3401    2.4041   -1.7314 O.2       1 <0>        -0.9452
     12 N1         -2.4856    0.9308    0.0591 N.pl3     1 <0>        -1.0661
     13 C9         -1.2080    1.4781    0.1006 C.ar      1 <0>         0.1582
     14 C10        -0.0935    0.6462    0.0387 C.ar      1 <0>        -0.1190
     15 C11         1.1721    1.1852    0.0743 C.ar      1 <0>        -0.0427
     16 C12         1.3380    2.5694    0.1780 C.ar      1 <0>        -0.1255
     17 C13         0.2169    3.4017    0.2453 C.ar      1 <0>        -0.0757
     18 C14        -1.0461    2.8566    0.2093 C.ar      1 <0>        -0.1070
     19 C15         2.6934    3.1505    0.2169 C.2       1 <0>         0.5690
     20 O3          3.6677    2.4253    0.1587 O.2       1 <0>        -0.5126
     21 N2          2.8518    4.4852    0.3169 N.am      1 <0>        -0.5455
     22 N3          4.1390    5.0370    0.3538 N.pl3     1 <0>        -0.4691
     23 C16         4.2974    6.3717    0.4539 C.2       1 <0>         0.5603
     24 S2          5.8703    7.0461    0.4990 S.2       1 <0>        -0.5878
     25 N4          3.2174    7.1755    0.5184 N.pl3     1 <0>        -0.6775
     26 C17         3.3896    8.6263    0.6271 C.3       1 <0>         0.1257
     27 C18         2.0170    9.3000    0.6829 C.3       1 <0>         0.0595
     28 H1          1.4545    8.9246    1.5377 H         1 <0>         0.0773
     29 C19         2.1872   10.8273    0.7973 C.3       1 <0>        -0.1475
     30 C20         1.4461   11.3856   -0.4419 C.3       1 <0>        -0.1560
     31 C21         0.5010   10.2137   -0.8103 C.3       1 <0>         0.0466
     32 O4          1.2954    9.0404   -0.5329 O.3       1 <0>        -0.3757
     33 H2         -0.6151   -3.7815   -6.8393 H         1 <0>         0.1287
     34 H3         -2.8321   -4.4979   -6.0500 H         1 <0>         0.1307
     35 H4         -4.0010   -3.2066   -4.3132 H         1 <0>         0.1324
     36 H5         -0.7104   -0.4611   -4.1669 H         1 <0>         0.1285
     37 H6          0.4464   -1.7724   -5.8970 H         1 <0>         0.1296
     38 H7         -4.1019   -1.2822   -2.7290 H         1 <0>         0.1465
     39 H8         -1.5854    0.4262   -2.9154 H         1 <0>         0.1636
     40 H9         -2.8468    0.4827    0.8399 H         1 <0>         0.4307
     41 H10        -0.2223   -0.4231   -0.0417 H         1 <0>         0.1437
     42 H11         2.0363    0.5396    0.0218 H         1 <0>         0.1485
     43 H12         0.3419    4.4715    0.3258 H         1 <0>         0.1306
     44 H13        -1.9126    3.4991    0.2609 H         1 <0>         0.1475
     45 H14         2.0746    5.0637    0.3634 H         1 <0>         0.4204
     46 H15         4.9162    4.4586    0.3074 H         1 <0>         0.4600
     47 H16         2.3262    6.7934    0.4928 H         1 <0>         0.3943
     48 H17         3.9458    8.8592    1.5351 H         1 <0>         0.1047
     49 H18         3.9393    8.9929   -0.2398 H         1 <0>         0.0994
     50 H19         1.7271   11.1947    1.7146 H         1 <0>         0.0838
     51 H20         3.2428   11.0971    0.7642 H         1 <0>         0.0883
     52 H21         0.8764   12.2786   -0.1848 H         1 <0>         0.0845
     53 H22         2.1448   11.5922   -1.2526 H         1 <0>         0.0812
     54 H23        -0.3917   10.2294   -0.1851 H         1 <0>         0.0639
     55 H24         0.2301   10.2561   -1.8652 H         1 <0>         0.0965
@<TRIPOS>BOND
     1    1    6 ar
     2    1    2 ar
     3    1   33 1
     4    2    3 ar
     5    2   34 1
     6    3    4 ar
     7    3   35 1
     8    4    5 ar
     9    4    7 1
    10    5    6 ar
    11    5   36 1
    12    6   37 1
    13    7    8 2
    14    7   38 1
    15    8    9 1
    16    8   39 1
    17    9   10 2
    18    9   11 2
    19    9   12 1
    20   12   13 1
    21   12   40 1
    22   13   18 ar
    23   13   14 ar
    24   14   15 ar
    25   14   41 1
    26   15   16 ar
    27   15   42 1
    28   16   17 ar
    29   16   19 1
    30   17   18 ar
    31   17   43 1
    32   18   44 1
    33   19   20 2
    34   19   21 am
    35   21   22 1
    36   21   45 1
    37   22   23 1
    38   22   46 1
    39   23   24 2
    40   23   25 1
    41   25   26 1
    42   25   47 1
    43   26   27 1
    44   26   48 1
    45   26   49 1
    46   27   28 1
    47   27   32 1
    48   27   29 1
    49   29   30 1
    50   29   50 1
    51   29   51 1
    52   30   31 1
    53   30   52 1
    54   30   53 1
    55   31   32 1
    56   31   54 1
    57   31   55 1
@<TRIPOS>MOLECULE
ZINC24506965
   55    58     0     0     0
SMALL
USER_CHARGES
(6R)-6-methyl-2-[[2-[[5-[[(2S)-tetrahydrofuran-2-yl]methylamino]-1,3,4-thiadiazol-2-yl]sulfanyl]acetyl]amino]-4,5,6,7-tetrahydrobenzothiophene-3-carboxamide
@<TRIPOS>ATOM
      1 C1         -0.0187    1.5258    0.0104 C.3       1 <0>        -0.1497
      2 C2          0.0021   -0.0041    0.0020 C.3       1 <0>        -0.0876
      3 H1         -1.0331   -0.3759    0.0060 H         1 <0>         0.0765
      4 C3          0.7423   -0.5142    1.2418 C.3       1 <0>        -0.1140
      5 C4          0.5567   -2.0270    1.3728 C.3       1 <0>        -0.0608
      6 C5          0.9413   -2.6843    0.0531 C.2       1 <0>        -0.0655
      7 C6          1.0083   -1.9655   -1.0886 C.2       1 <0>        -0.2057
      8 S1          1.4838   -3.1334   -2.3313 S.3       1 <0>         0.2250
      9 C7          1.5920   -4.5574   -1.3502 C.2       1 <0>         0.0752
     10 C8          1.2580   -4.0956   -0.0849 C.2       1 <0>        -0.2227
     11 C9          1.2265   -4.9983    1.0701 C.2       1 <0>         0.5842
     12 O1          0.1982   -5.5822    1.3582 O.2       1 <0>        -0.5422
     13 N1          2.3362   -5.1816    1.8126 N.am      1 <0>        -0.8709
     14 N2          1.9298   -5.8457   -1.7358 N.am      1 <0>        -0.6264
     15 C10         2.2269   -6.1075   -3.0241 C.2       1 <0>         0.5345
     16 O2          2.1988   -5.2162   -3.8460 O.2       1 <0>        -0.4861
     17 C11         2.5941   -7.5077   -3.4432 C.3       1 <0>        -0.1586
     18 S2          2.9362   -7.5356   -5.2244 S.3       1 <0>         0.1297
     19 C12         3.3444   -9.2178   -5.5537 C.2       1 <0>         0.0178
     20 N3          3.4042  -10.2414   -4.7238 N.2       1 <0>        -0.2738
     21 N4          3.7439  -11.4875   -5.1976 N.2       1 <0>        -0.3806
     22 C13         4.0191  -11.6508   -6.4767 C.2       1 <0>         0.3603
     23 S3          3.7954   -9.9915   -7.0993 S.3       1 <0>        -0.0013
     24 N5          4.3853  -12.8054   -7.1585 N.pl3     1 <0>        -0.6762
     25 C14         4.5099  -14.0740   -6.4365 C.3       1 <0>         0.1363
     26 C15         4.9213  -15.1781   -7.4126 C.3       1 <0>         0.0598
     27 H2          4.2488  -15.1331   -8.2820 H         1 <0>         0.0805
     28 C16         4.9373  -16.5481   -6.6991 C.3       1 <0>        -0.1450
     29 C17         6.1479  -17.2805   -7.3198 C.3       1 <0>        -0.1560
     30 C18         6.7201  -16.2663   -8.3348 C.3       1 <0>         0.0457
     31 O3          6.2812  -14.9767   -7.8553 O.3       1 <0>        -0.3682
     32 C19         0.7357   -0.5020   -1.2518 C.3       1 <0>        -0.0319
     33 H3         -0.5445    1.8804    0.9092 H         1 <0>         0.0586
     34 H4         -0.5398    1.8903   -0.8871 H         1 <0>         0.0582
     35 H5          1.0133    1.9065    0.0152 H         1 <0>         0.0571
     36 H6          1.8145   -0.2868    1.1481 H         1 <0>         0.0672
     37 H7          0.3397   -0.0202    2.1384 H         1 <0>         0.0706
     38 H8          1.2001   -2.4068    2.1801 H         1 <0>         0.0725
     39 H9         -0.4950   -2.2485    1.6072 H         1 <0>         0.0785
     40 H10         2.3125   -5.8588    2.6791 H         1 <0>         0.4229
     41 H11         3.2656   -4.6540    1.5521 H         1 <0>         0.4222
     42 H12         1.9553   -6.6541   -0.9903 H         1 <0>         0.4494
     43 H13         3.4894   -7.8323   -2.8927 H         1 <0>         0.1362
     44 H14         1.7594   -8.1882   -3.2194 H         1 <0>         0.1365
     45 H15         4.5815  -12.7666   -8.2402 H         1 <0>         0.4494
     46 H16         5.2739  -13.9754   -5.6512 H         1 <0>         0.0810
     47 H17         3.5438  -14.3313   -5.9779 H         1 <0>         0.0867
     48 H18         5.0562  -16.3961   -5.6162 H         1 <0>         0.0827
     49 H19         3.9910  -17.0740   -6.8938 H         1 <0>         0.0833
     50 H20         6.8715  -17.5279   -6.5291 H         1 <0>         0.0787
     51 H21         5.8064  -18.2058   -7.8069 H         1 <0>         0.0807
     52 H22         7.8173  -16.3433   -8.3512 H         1 <0>         0.0963
     53 H23         6.3221  -16.4858   -9.3365 H         1 <0>         0.0637
     54 H24         0.1051   -0.3327   -2.1371 H         1 <0>         0.0815
     55 H25         1.6820    0.0471   -1.3653 H         1 <0>         0.0840
@<TRIPOS>BOND
     1    1    2 1
     2    1   33 1
     3    1   34 1
     4    1   35 1
     5    2    3 1
     6    2   32 1
     7    2    4 1
     8    4    5 1
     9    4   36 1
    10    4   37 1
    11    5    6 1
    12    5   38 1
    13    5   39 1
    14    6   10 1
    15    6    7 2
    16    7    8 1
    17    7   32 1
    18    8    9 1
    19    9   10 2
    20    9   14 1
    21   10   11 1
    22   11   12 2
    23   11   13 am
    24   13   40 1
    25   13   41 1
    26   14   15 am
    27   14   42 1
    28   15   16 2
    29   15   17 1
    30   17   18 1
    31   17   43 1
    32   17   44 1
    33   18   19 1
    34   19   23 1
    35   19   20 2
    36   20   21 1
    37   21   22 2
    38   22   23 1
    39   22   24 1
    40   24   25 1
    41   24   45 1
    42   25   26 1
    43   25   46 1
    44   25   47 1
    45   26   27 1
    46   26   31 1
    47   26   28 1
    48   28   29 1
    49   28   48 1
    50   28   49 1
    51   29   30 1
    52   29   50 1
    53   29   51 1
    54   30   31 1
    55   30   52 1
    56   30   53 1
    57   32   54 1
    58   32   55 1
@<TRIPOS>MOLECULE
ZINC39361538
   51    54     0     0     0
SMALL
USER_CHARGES

@<TRIPOS>ATOM
      1 C1         -0.0130    1.3791    0.0510 C.ar      1 <0>        -0.1197
      2 C2          0.3151    0.5267    1.0894 C.ar      1 <0>        -0.1001
      3 C3          1.5204   -0.1472    1.0770 C.ar      1 <0>        -0.1254
      4 C4          2.4035    0.0316    0.0195 C.ar      1 <0>         0.1630
      5 C5          2.0704    0.8884   -1.0222 C.ar      1 <0>        -0.1232
      6 C6          0.8637    1.5595   -1.0031 C.ar      1 <0>        -0.0977
      7 N1          3.6242   -0.6483    0.0039 N.pl3     1 <0>        -0.5746
      8 C7          3.8221   -2.1045    0.0995 C.3       1 <0>         0.3773
      9 H1          3.4380   -2.4813    1.0474 H         1 <0>         0.0859
     10 N2          5.2846   -2.2681    0.0327 N.pl3     1 <0>        -0.6623
     11 N3          5.8162   -0.9786   -0.0899 N.2       1 <0>        -0.2970
     12 C8          4.8867   -0.0840   -0.1108 C.2       1 <0>         0.2612
     13 S1          5.1848    1.6460   -0.2615 S.3       1 <0>         0.0809
     14 C9          6.9910    1.7721   -0.3728 C.3       1 <0>        -0.1535
     15 C10         7.3861    3.2201   -0.5071 C.2       1 <0>         0.5361
     16 O1          6.5332    4.0823   -0.5259 O.2       1 <0>        -0.4986
     17 N4          8.6873    3.5571   -0.6064 N.am      1 <0>        -0.6661
     18 C11         9.0623    4.9062   -0.6162 C.ar      1 <0>         0.1330
     19 C12        10.1390    5.3229   -1.3876 C.ar      1 <0>        -0.1120
     20 C13        10.5074    6.6540   -1.3959 C.ar      1 <0>        -0.1335
     21 C14         9.8040    7.5727   -0.6352 C.ar      1 <0>         0.0879
     22 C15         8.7299    7.1592    0.1348 C.ar      1 <0>        -0.1325
     23 C16         8.3545    5.8301    0.1410 C.ar      1 <0>        -0.0894
     24 F1         10.1664    8.8742   -0.6440 F         1 <0>        -0.1375
     25 C17         3.1452   -2.8164   -1.0735 C.3       1 <0>        -0.1220
     26 C18         3.2565   -4.3078   -0.8878 C.2       1 <0>         0.2040
     27 N5          4.3809   -4.9698   -1.2999 N.am      1 <0>        -0.6363
     28 C19         4.4904   -6.3010   -1.1383 C.2       1 <0>         0.7012
     29 O2          5.4983   -6.8692   -1.5118 O.2       1 <0>        -0.5349
     30 N6          3.5000   -7.0125   -0.5685 N.am      1 <0>        -0.6587
     31 C20         2.3758   -6.3973   -0.1490 C.2       1 <0>         0.5506
     32 O3          1.4793   -7.0403    0.3666 O.2       1 <0>        -0.5076
     33 C21         2.2496   -4.9963   -0.3088 C.2       1 <0>        -0.2829
     34 H2         -0.9581    1.9018    0.0612 H         1 <0>         0.1275
     35 H3         -0.3718    0.3882    1.9112 H         1 <0>         0.1296
     36 H4          1.7764   -0.8122    1.8885 H         1 <0>         0.1253
     37 H5          2.7548    1.0299   -1.8457 H         1 <0>         0.1290
     38 H6          0.6043    2.2260   -1.8124 H         1 <0>         0.1302
     39 H7          5.7798   -3.1015    0.0674 H         1 <0>         0.4436
     40 H8          7.4405    1.3548    0.5282 H         1 <0>         0.1294
     41 H9          7.3409    1.2177   -1.2436 H         1 <0>         0.1282
     42 H10         9.3640    2.8652   -0.6710 H         1 <0>         0.4165
     43 H11        10.6883    4.6065   -1.9805 H         1 <0>         0.1379
     44 H12        11.3448    6.9784   -1.9958 H         1 <0>         0.1417
     45 H13         8.1828    7.8773    0.7276 H         1 <0>         0.1414
     46 H14         7.5140    5.5088    0.7382 H         1 <0>         0.1441
     47 H15         2.0935   -2.5327   -1.1127 H         1 <0>         0.1182
     48 H16         3.6341   -2.5287   -2.0042 H         1 <0>         0.1004
     49 H17         3.5952   -7.9716   -0.4596 H         1 <0>         0.4334
     50 H18         1.3584   -4.4856    0.0247 H         1 <0>         0.1734
     51 H19         5.1057   -4.4748   -1.7128 H         1 <0>         0.4345
@<TRIPOS>BOND
     1    1    6 ar
     2    1    2 ar
     3    1   34 1
     4    2    3 ar
     5    2   35 1
     6    3    4 ar
     7    3   36 1
     8    4    5 ar
     9    4    7 1
    10    5    6 ar
    11    5   37 1
    12    6   38 1
    13    7   12 1
    14    7    8 1
    15    8    9 1
    16    8   10 1
    17    8   25 1
    18   10   11 1
    19   10   39 1
    20   11   12 2
    21   12   13 1
    22   13   14 1
    23   14   15 1
    24   14   40 1
    25   14   41 1
    26   15   16 2
    27   15   17 am
    28   17   18 1
    29   17   42 1
    30   18   23 ar
    31   18   19 ar
    32   19   20 ar
    33   19   43 1
    34   20   21 ar
    35   20   44 1
    36   21   22 ar
    37   21   24 1
    38   22   23 ar
    39   22   45 1
    40   23   46 1
    41   25   47 1
    42   25   48 1
    43   25   26 1
    44   26   33 2
    45   26   27 1
    46   27   28 am
    47   27   51 1
    48   28   29 2
    49   28   30 am
    50   30   49 1
    51   30   31 am
    52   31   32 2
    53   31   33 1
    54   33   50 1
@<TRIPOS>MOLECULE
ZINC02794084
   55    58     0     0     0
SMALL
USER_CHARGES

@<TRIPOS>ATOM
      1 C1          2.6850    0.4292    0.7250 C.3       1 <0>         0.0279
      2 O1          1.8021   -0.6670    0.4785 O.3       1 <0>        -0.3216
      3 C2          1.5069   -0.9420   -0.8201 C.ar      1 <0>         0.1265
      4 C3          2.0593   -0.1774   -1.8347 C.ar      1 <0>        -0.2034
      5 C4          1.7582   -0.4582   -3.1546 C.ar      1 <0>        -0.0700
      6 C5          0.9060   -1.5014   -3.4663 C.ar      1 <0>        -0.1452
      7 C6          0.3504   -2.2687   -2.4600 C.ar      1 <0>        -0.0341
      8 C7          0.6528   -1.9968   -1.1337 C.ar      1 <0>         0.0933
      9 N1          0.0960   -2.7774   -0.1120 N.pl3     1 <0>        -0.6201
     10 C8          0.0611   -4.1193   -0.2322 C.2       1 <0>         0.5573
     11 S1          0.8208   -4.8795   -1.5648 S.2       1 <0>        -0.5776
     12 N2         -0.5720   -4.8628    0.6968 N.pl3     1 <0>        -0.4586
     13 N3         -1.1937   -4.2408    1.7873 N.am      1 <0>        -0.5489
     14 C9         -1.8267   -4.9843    2.7163 C.2       1 <0>         0.6180
     15 O2         -1.8582   -6.1959    2.6078 O.2       1 <0>        -0.5449
     16 C10        -2.4780   -4.3326    3.8588 C.2       1 <0>        -0.3575
     17 C11        -2.5331   -2.9400    4.1199 C.2       1 <0>         0.1082
     18 N4         -3.1994   -2.7577    5.2277 N.2       1 <0>        -0.2687
     19 N5         -3.6014   -3.9943    5.7296 N.pl3     1 <0>        -0.3969
     20 C12        -3.1614   -4.9573    4.8850 C.2       1 <0>         0.4497
     21 N6         -3.3955   -6.3050    5.0938 N.pl3     1 <0>        -0.7001
     22 C13        -3.9063   -6.6791    6.4272 C.3       1 <0>         0.1916
     23 H1         -3.0924   -6.6534    7.1517 H         1 <0>         0.0918
     24 C14        -4.9889   -5.6722    6.8325 C.3       1 <0>        -0.1501
     25 C15        -4.3722   -4.2706    6.9462 C.3       1 <0>         0.1166
     26 H2         -3.7150   -4.2195    7.8143 H         1 <0>         0.1256
     27 C16        -5.4937   -3.2395    7.0876 C.3       1 <0>         0.2664
     28 F1         -4.9406   -1.9570    7.1686 F         1 <0>        -0.1816
     29 F2         -6.3384   -3.3137    5.9749 F         1 <0>        -0.1946
     30 C17        -4.4931   -8.0661    6.3739 C.ar      1 <0>        -0.1060
     31 C18        -5.2346   -8.4611    5.2761 C.ar      1 <0>        -0.1024
     32 C19        -5.7730   -9.7334    5.2272 C.ar      1 <0>        -0.1151
     33 C20        -5.5694  -10.6108    6.2758 C.ar      1 <0>        -0.1079
     34 C21        -4.8271  -10.2161    7.3731 C.ar      1 <0>        -0.1164
     35 C22        -4.2852   -8.9453    7.4201 C.ar      1 <0>        -0.1010
     36 H3          3.6430    0.2402    0.2406 H         1 <0>         0.0589
     37 H4          2.2492    1.3441    0.3236 H         1 <0>         0.0585
     38 H5          2.8364    0.5395    1.7988 H         1 <0>         0.1016
     39 H6          2.7250    0.6384   -1.5946 H         1 <0>         0.1339
     40 H7          2.1895    0.1392   -3.9442 H         1 <0>         0.1293
     41 H8          0.6736   -1.7171   -4.4988 H         1 <0>         0.1322
     42 H9         -0.3152   -3.0827   -2.7064 H         1 <0>         0.1471
     43 H10        -0.2643   -2.3520    0.6818 H         1 <0>         0.4023
     44 H11        -0.5971   -5.8286    0.6103 H         1 <0>         0.4607
     45 H12        -1.1685   -3.2750    1.8738 H         1 <0>         0.4194
     46 H13        -2.0987   -2.1636    3.5076 H         1 <0>         0.1902
     47 H14        -3.2334   -6.9663    4.4030 H         1 <0>         0.4357
     48 H15        -5.7781   -5.6665    6.0808 H         1 <0>         0.1000
     49 H16        -5.4095   -5.9606    7.7959 H         1 <0>         0.1188
     50 H17        -6.0654   -3.4464    7.9923 H         1 <0>         0.1296
     51 H18        -5.3937   -7.7756    4.4569 H         1 <0>         0.1235
     52 H19        -6.3529  -10.0418    4.3699 H         1 <0>         0.1270
     53 H20        -5.9906  -11.6046    6.2379 H         1 <0>         0.1265
     54 H21        -4.6684  -10.9015    8.1926 H         1 <0>         0.1278
     55 H22        -3.7022   -8.6382    8.2758 H         1 <0>         0.1266
@<TRIPOS>BOND
     1    1    2 1
     2    1   36 1
     3    1   37 1
     4    1   38 1
     5    2    3 1
     6    3    8 ar
     7    3    4 ar
     8    4    5 ar
     9    4   39 1
    10    5    6 ar
    11    5   40 1
    12    6    7 ar
    13    6   41 1
    14    7    8 ar
    15    7   42 1
    16    8    9 1
    17    9   10 1
    18    9   43 1
    19   10   11 2
    20   10   12 1
    21   12   13 1
    22   12   44 1
    23   13   14 am
    24   13   45 1
    25   14   15 2
    26   14   16 1
    27   16   20 2
    28   16   17 1
    29   17   18 2
    30   17   46 1
    31   18   19 1
    32   19   25 1
    33   19   20 1
    34   20   21 1
    35   21   22 1
    36   21   47 1
    37   22   23 1
    38   22   24 1
    39   22   30 1
    40   24   25 1
    41   24   48 1
    42   24   49 1
    43   25   26 1
    44   25   27 1
    45   27   28 1
    46   27   29 1
    47   27   50 1
    48   30   35 ar
    49   30   31 ar
    50   31   32 ar
    51   31   51 1
    52   32   33 ar
    53   32   52 1
    54   33   34 ar
    55   33   53 1
    56   34   35 ar
    57   34   54 1
    58   35   55 1
@<TRIPOS>MOLECULE
ZINC11657344
   51    53     0     0     0
SMALL
USER_CHARGES
N-[4-[[2-[3-(trifluoromethyl)phenyl]aminoacetyl]aminocarbamoylmethyl]thiazol-2-yl]benzamide
@<TRIPOS>ATOM
      1 C1         -4.4321   11.4611   15.6947 C.ar      1 <0>        -0.0836
      2 C2         -4.1885   10.6367   16.7789 C.ar      1 <0>        -0.1255
      3 C3         -3.3811    9.5271   16.6379 C.ar      1 <0>        -0.0507
      4 C4         -2.8090    9.2371   15.3980 C.ar      1 <0>        -0.1381
      5 C5         -3.0539   10.0765   14.3097 C.ar      1 <0>        -0.0827
      6 C6         -3.8682   11.1795   14.4630 C.ar      1 <0>        -0.1248
      7 C7         -1.9430    8.0499   15.2395 C.2       1 <0>         0.5641
      8 O1         -1.7276    7.3235   16.1901 O.2       1 <0>        -0.4949
      9 N1         -1.3922    7.7727   14.0411 N.am      1 <0>        -0.6067
     10 C8         -0.5784    6.6571   13.8922 C.2       1 <0>         0.2857
     11 N2          0.0487    6.2266   12.8146 N.2       1 <0>        -0.5226
     12 C9          0.7865    5.1341   12.8442 C.2       1 <0>         0.0941
     13 C10         0.8980    4.4614   14.0157 C.2       1 <0>        -0.2569
     14 S1         -0.1201    5.4747   15.0786 S.3       1 <0>         0.1694
     15 C11         1.4944    4.6481   11.6058 C.3       1 <0>        -0.0546
     16 C12         0.4945    4.4718   10.4921 C.2       1 <0>         0.5209
     17 O2         -0.6775    4.7166   10.6851 O.2       1 <0>        -0.5143
     18 N3          0.9028    4.0420    9.2817 N.am      1 <0>        -0.5277
     19 N4         -0.0267    3.8780    8.2464 N.am      1 <0>        -0.5165
     20 C13         0.3815    3.4483    7.0360 C.2       1 <0>         0.5110
     21 O3          1.5536    3.2034    6.8431 O.2       1 <0>        -0.5321
     22 C14        -0.6183    3.2719    5.9224 C.3       1 <0>         0.1165
     23 N5          0.0699    2.7995    4.7185 N.pl3     1 <0>        -0.7336
     24 C15        -0.6542    2.5621    3.5479 C.ar      1 <0>         0.2179
     25 C16        -2.0270    2.7738    3.5234 C.ar      1 <0>        -0.1693
     26 C17        -2.7397    2.5386    2.3644 C.ar      1 <0>        -0.0694
     27 C18        -2.0876    2.0980    1.2270 C.ar      1 <0>        -0.1283
     28 C19        -0.7223    1.8808    1.2496 C.ar      1 <0>        -0.1319
     29 C20        -0.0033    2.1142    2.4056 C.ar      1 <0>        -0.1437
     30 C21        -0.0169    1.3948    0.0097 C.3       1 <0>         0.5072
     31 F1          0.0021   -0.0041    0.0020 F         1 <0>        -0.1757
     32 F2          1.2956    1.8790   -0.0002 F         1 <0>        -0.1769
     33 F3         -0.6935    1.8582   -1.1237 F         1 <0>        -0.1756
     34 H1         -5.0655   12.3282   15.8103 H         1 <0>         0.1322
     35 H2         -4.6317   10.8622   17.7376 H         1 <0>         0.1354
     36 H3         -3.1918    8.8844   17.4849 H         1 <0>         0.1408
     37 H4         -2.6108    9.8602   13.3489 H         1 <0>         0.1274
     38 H5         -4.0624   11.8270   13.6208 H         1 <0>         0.1339
     39 H6         -1.5642    8.3523   13.2826 H         1 <0>         0.4248
     40 H7          1.4495    3.5613   14.2437 H         1 <0>         0.1987
     41 H8          1.9779    3.6938   11.8145 H         1 <0>         0.1193
     42 H9          2.2462    5.3785   11.3068 H         1 <0>         0.1170
     43 H10         1.8402    3.8462    9.1274 H         1 <0>         0.4328
     44 H11        -0.9641    4.0739    8.4007 H         1 <0>         0.4348
     45 H12        -1.1018    4.2263    5.7136 H         1 <0>         0.1005
     46 H13        -1.3701    2.5415    6.2214 H         1 <0>         0.1006
     47 H14         1.0284    2.6516    4.7343 H         1 <0>         0.4151
     48 H15        -2.5362    3.1224    4.4098 H         1 <0>         0.1308
     49 H16        -3.8070    2.7030    2.3446 H         1 <0>         0.1359
     50 H17        -2.6466    1.9193    0.3205 H         1 <0>         0.1339
     51 H18         1.0638    1.9482    2.4214 H         1 <0>         0.1355
@<TRIPOS>BOND
     1    1    6 ar
     2    1    2 ar
     3    1   34 1
     4    2    3 ar
     5    2   35 1
     6    3    4 ar
     7    3   36 1
     8    4    5 ar
     9    4    7 1
    10    5    6 ar
    11    5   37 1
    12    6   38 1
    13    7    8 2
    14    7    9 am
    15    9   10 1
    16    9   39 1
    17   10   14 1
    18   10   11 2
    19   11   12 1
    20   12   13 2
    21   12   15 1
    22   13   14 1
    23   13   40 1
    24   15   16 1
    25   15   41 1
    26   15   42 1
    27   16   17 2
    28   16   18 am
    29   18   19 1
    30   18   43 1
    31   19   20 am
    32   19   44 1
    33   20   21 2
    34   20   22 1
    35   22   23 1
    36   22   45 1
    37   22   46 1
    38   23   24 1
    39   23   47 1
    40   24   29 ar
    41   24   25 ar
    42   25   26 ar
    43   25   48 1
    44   26   27 ar
    45   26   49 1
    46   27   28 ar
    47   27   50 1
    48   28   29 ar
    49   28   30 1
    50   29   51 1
    51   30   31 1
    52   30   32 1
    53   30   33 1
@<TRIPOS>MOLECULE
ZINC23867659
   52    54     0     0     0
SMALL
USER_CHARGES
(2R)-2-[[4-amino-5-(4-methoxyphenyl)-1,2,4-triazol-3-yl]sulfanyl]-N-[2-oxo-2-[(2,3,4-trifluorophenyl)amino]ethyl]propanamide
@<TRIPOS>ATOM
      1 C1          5.8770    8.1993   -0.8932 C.3       1 <0>        -0.1507
      2 C2          5.3076    8.0251    0.5162 C.3       1 <0>        -0.1074
      3 H1          5.8706    7.1850    0.9490 H         1 <0>         0.1274
      4 C3          3.8953    7.5067    0.4269 C.2       1 <0>         0.5386
      5 O1          2.9621    8.2807    0.4586 O.2       1 <0>        -0.5270
      6 N1          3.6694    6.1830    0.3117 N.am      1 <0>        -0.7260
      7 C4          2.2965    5.6791    0.2249 C.3       1 <0>         0.1057
      8 C5          2.3194    4.1772    0.1036 C.2       1 <0>         0.5200
      9 O2          3.3784    3.5859    0.0909 O.2       1 <0>        -0.5119
     10 N2          1.1632    3.4910    0.0092 N.am      1 <0>        -0.6752
     11 C6          1.1777    2.0896    0.0133 C.ar      1 <0>         0.1447
     12 C7          2.2303    1.4073    0.6078 C.ar      1 <0>        -0.0889
     13 C8          2.2440    0.0257    0.6114 C.ar      1 <0>        -0.1075
     14 C9          1.2095   -0.6805    0.0219 C.ar      1 <0>         0.0801
     15 C10         0.1564   -0.0034   -0.5735 C.ar      1 <0>         0.0580
     16 C11         0.1388    1.3813   -0.5788 C.ar      1 <0>         0.0628
     17 F1         -0.8840    2.0426   -1.1635 F         1 <0>        -0.1163
     18 F2         -0.8521   -0.6942   -1.1487 F         1 <0>        -0.1116
     19 F3          1.2265   -2.0314    0.0264 F         1 <0>        -0.1173
     20 S1          5.3116    9.6210    1.3700 S.3       1 <0>         0.0886
     21 C12         7.0467    9.9117    1.4671 C.2       1 <0>         0.1183
     22 N3          7.9955    9.1242    1.0132 N.2       1 <0>        -0.2743
     23 N4          9.1484    9.6400    1.2501 N.2       1 <0>        -0.2575
     24 C13         9.0069   10.7887    1.8697 C.2       1 <0>         0.2072
     25 N5          7.6562   11.0008    2.0231 N.pl3     1 <0>        -0.2092
     26 N6          7.0508   12.0749    2.6112 N.3       1 <0>        -0.7668
     27 C14        10.0933   11.6876    2.3130 C.ar      1 <0>        -0.0477
     28 C15         9.8257   12.7147    3.2199 C.ar      1 <0>        -0.0747
     29 C16        10.8426   13.5479    3.6345 C.ar      1 <0>        -0.2011
     30 C17        12.1297   13.3732    3.1433 C.ar      1 <0>         0.1428
     31 C18        12.3990   12.3560    2.2371 C.ar      1 <0>        -0.1425
     32 C19        11.3886   11.5153    1.8216 C.ar      1 <0>        -0.0343
     33 O3         13.1282   14.2001    3.5501 O.3       1 <0>        -0.3118
     34 C20        12.7819   15.2251    4.4836 C.3       1 <0>         0.0204
     35 H2          6.9078    8.5777   -0.8280 H         1 <0>         0.0940
     36 H3          5.2580    8.9161   -1.4527 H         1 <0>         0.0697
     37 H4          5.8745    7.2294   -1.4121 H         1 <0>         0.0737
     38 H5          4.5158    5.4810    0.2828 H         1 <0>         0.4412
     39 H6          1.7429    5.9654    1.1313 H         1 <0>         0.1100
     40 H7          1.8026    6.1108   -0.6581 H         1 <0>         0.1083
     41 H8          0.2082    4.0309   -0.0711 H         1 <0>         0.4504
     42 H9          3.0384    1.9564    1.0679 H         1 <0>         0.1726
     43 H10         3.0633   -0.5041    1.0746 H         1 <0>         0.1604
     44 H11         7.6606   12.8923    3.0235 H         1 <0>         0.4432
     45 H12         5.9535   12.1224    2.6725 H         1 <0>         0.4447
     46 H13         8.8240   12.8540    3.5989 H         1 <0>         0.1252
     47 H14        10.6372   14.3404    4.3388 H         1 <0>         0.1374
     48 H15        13.4013   12.2232    1.8577 H         1 <0>         0.1428
     49 H16        11.5987   10.7247    1.1165 H         1 <0>         0.1473
     50 H17        13.6765   15.8174    4.7264 H         1 <0>         0.1058
     51 H18        12.3856   14.7664    5.4015 H         1 <0>         0.0592
     52 H19        12.0171   15.8805    4.0415 H         1 <0>         0.0590
@<TRIPOS>BOND
     1    1    2 1
     2    1   35 1
     3    1   36 1
     4    1   37 1
     5    2    3 1
     6    2    4 1
     7    2   20 1
     8    4    5 2
     9    4    6 am
    10    6    7 1
    11    6   38 1
    12    7    8 1
    13    7   39 1
    14    7   40 1
    15    8    9 2
    16    8   10 am
    17   10   11 1
    18   10   41 1
    19   11   16 ar
    20   11   12 ar
    21   12   13 ar
    22   12   42 1
    23   13   14 ar
    24   13   43 1
    25   14   15 ar
    26   14   19 1
    27   15   16 ar
    28   15   18 1
    29   16   17 1
    30   20   21 1
    31   21   25 1
    32   21   22 2
    33   22   23 1
    34   23   24 2
    35   24   25 1
    36   24   27 1
    37   25   26 1
    38   26   44 1
    39   26   45 1
    40   27   32 ar
    41   27   28 ar
    42   28   29 ar
    43   28   46 1
    44   29   30 ar
    45   29   47 1
    46   30   31 ar
    47   30   33 1
    48   31   32 ar
    49   31   48 1
    50   32   49 1
    51   33   34 1
    52   34   50 1
    53   34   51 1
    54   34   52 1
@<TRIPOS>MOLECULE
ZINC38959509
   59    62     0     0     0
SMALL
USER_CHARGES

@<TRIPOS>ATOM
      1 C1         -4.2236   -0.0379    7.2492 C.3       1 <0>        -0.1179
      2 C2         -3.9430   -1.4564    6.8246 C.ar      1 <0>        -0.0919
      3 C3         -4.8064   -2.4719    7.1963 C.ar      1 <0>        -0.0923
      4 C4         -4.5565   -3.7766    6.8103 C.ar      1 <0>        -0.1220
      5 C5         -3.4429   -4.0735    6.0516 C.ar      1 <0>        -0.0913
      6 C6         -2.5681   -3.0540    5.6733 C.ar      1 <0>        -0.1344
      7 C7         -2.8293   -1.7387    6.0614 C.ar      1 <0>        -0.0598
      8 C8         -1.3727   -3.3649    4.8608 C.2       1 <0>         0.5630
      9 O1         -0.6125   -2.4749    4.5328 O.2       1 <0>        -0.5325
     10 N1         -1.1259   -4.6351    4.4838 N.am      1 <0>        -0.7229
     11 C9          0.0587   -4.9431    3.6786 C.3       1 <0>         0.1166
     12 C10         0.1697   -6.4578    3.4935 C.3       1 <0>         0.1693
     13 H1          0.1183   -6.9638    4.4576 H         1 <0>         0.1211
     14 N2         -0.9020   -6.9513    2.5894 N.3       1 <0>        -0.5051
     15 N3         -0.3414   -8.2058    2.0634 N.3       1 <0>        -0.4862
     16 C11         1.0989   -7.9179    1.8769 C.3       1 <0>         0.2017
     17 H2          1.2907   -7.6241    0.8449 H         1 <0>         0.1356
     18 N4          1.4282   -6.8036    2.7931 N.3       1 <0>        -0.5415
     19 C12         1.9516   -5.6492    2.0504 C.3       1 <0>         0.0046
     20 S1          2.0852   -9.3804    2.2999 S.3       1 <0>        -0.1048
     21 C13         1.6447   -9.7225    4.0261 C.3       1 <0>        -0.1331
     22 C14         2.4049  -10.9310    4.5085 C.2       1 <0>         0.5363
     23 O2          3.1686  -11.5050    3.7614 O.2       1 <0>        -0.4720
     24 N5          2.2360  -11.3739    5.7701 N.am      1 <0>        -0.6048
     25 C15         2.9369  -12.4882    6.2149 C.2       1 <0>         0.3119
     26 N6          2.9086  -13.0758    7.3965 N.2       1 <0>        -0.5278
     27 C16         3.6506  -14.1429    7.6519 C.2       1 <0>         0.1172
     28 C17         4.4616  -14.6459    6.6729 C.2       1 <0>        -0.2362
     29 S2          4.1103  -13.5111    5.3364 S.3       1 <0>         0.1267
     30 C18         3.6023  -14.7859    8.9876 C.ar      1 <0>        -0.0264
     31 C19         4.3894  -15.9050    9.2541 C.ar      1 <0>        -0.1037
     32 C20         4.3404  -16.4991   10.4987 C.ar      1 <0>        -0.1202
     33 C21         3.5119  -15.9864   11.4807 C.ar      1 <0>        -0.1136
     34 C22         2.7282  -14.8763   11.2217 C.ar      1 <0>        -0.1235
     35 C23         2.7740  -14.2699    9.9828 C.ar      1 <0>        -0.0869
     36 H3         -4.8403    0.4517    6.4956 H         1 <0>         0.0744
     37 H4         -4.7505   -0.0418    8.2034 H         1 <0>         0.0701
     38 H5         -3.2829    0.5022    7.3558 H         1 <0>         0.0701
     39 H6         -5.6791   -2.2449    7.7907 H         1 <0>         0.1288
     40 H7         -5.2342   -4.5646    7.1037 H         1 <0>         0.1309
     41 H8         -3.2484   -5.0925    5.7515 H         1 <0>         0.1252
     42 H9         -2.1586   -0.9446    5.7682 H         1 <0>         0.1361
     43 H10        -1.7325   -5.3453    4.7455 H         1 <0>         0.4061
     44 H11        -0.0298   -4.4635    2.7038 H         1 <0>         0.0767
     45 H12         0.9494   -4.5729    4.1862 H         1 <0>         0.0919
     46 H13        -1.0781   -6.2936    1.8447 H         1 <0>         0.3614
     47 H14        -0.4772   -8.9639    2.7152 H         1 <0>         0.3601
     48 H15         2.2491   -4.8701    2.7523 H         1 <0>         0.0874
     49 H16         2.8158   -5.9573    1.4619 H         1 <0>         0.0840
     50 H17         1.1783   -5.2637    1.3860 H         1 <0>         0.0388
     51 H18         1.9008   -8.8617    4.6438 H         1 <0>         0.1289
     52 H19         0.5741   -9.9147    4.0966 H         1 <0>         0.1171
     53 H20         5.1274  -15.4958    6.6985 H         1 <0>         0.2004
     54 H21         5.0360  -16.3065    8.4879 H         1 <0>         0.1252
     55 H22         4.9498  -17.3663   10.7063 H         1 <0>         0.1264
     56 H23         3.4765  -16.4548   12.4532 H         1 <0>         0.1236
     57 H24         2.0827  -14.4807   11.9919 H         1 <0>         0.1245
     58 H25         2.1654  -13.4004    9.7832 H         1 <0>         0.1308
     59 H26         1.6252  -10.9148    6.3676 H         1 <0>         0.4282
@<TRIPOS>BOND
     1    1    2 1
     2    1   36 1
     3    1   37 1
     4    1   38 1
     5    2    7 ar
     6    2    3 ar
     7    3    4 ar
     8    3   39 1
     9    4    5 ar
    10    4   40 1
    11    5    6 ar
    12    5   41 1
    13    6    7 ar
    14    6    8 1
    15    7   42 1
    16    8    9 2
    17    8   10 am
    18   10   11 1
    19   10   43 1
    20   11   12 1
    21   11   44 1
    22   11   45 1
    23   12   13 1
    24   12   18 1
    25   12   14 1
    26   14   15 1
    27   14   46 1
    28   15   16 1
    29   15   47 1
    30   16   17 1
    31   16   18 1
    32   16   20 1
    33   18   19 1
    34   19   48 1
    35   19   49 1
    36   19   50 1
    37   20   21 1
    38   21   22 1
    39   21   51 1
    40   21   52 1
    41   22   23 2
    42   22   24 am
    43   24   25 1
    44   24   59 1
    45   25   29 1
    46   25   26 2
    47   26   27 1
    48   27   28 2
    49   27   30 1
    50   28   29 1
    51   28   53 1
    52   30   35 ar
    53   30   31 ar
    54   31   32 ar
    55   31   54 1
    56   32   33 ar
    57   32   55 1
    58   33   34 ar
    59   33   56 1
    60   34   35 ar
    61   34   57 1
    62   35   58 1
@<TRIPOS>MOLECULE
ZINC43553449
   72    74     0     0     0
SMALL
USER_CHARGES

@<TRIPOS>ATOM
      1 C1          0.1161    1.5059   -0.0193 C.3       1 <0>        -0.1620
      2 C2          0.1170   -0.0304   -0.0096 C.3       1 <0>        -0.0359
      3 C3         -1.3252   -0.5177    0.0663 C.3       1 <0>        -0.1033
      4 C4         -1.9769    0.0392    1.3328 C.3       1 <0>        -0.1497
      5 C5         -1.2319   -0.3833    2.5854 C.3       1 <0>         0.1279
      6 H1         -1.6153    0.2287    3.4260 H         1 <0>         0.0510
      7 C6          0.2743   -0.1921    2.5289 C.3       1 <0>        -0.0334
      8 C7          0.8907   -0.5772    1.1849 C.3       1 <0>        -0.0447
      9 H2          1.9280   -0.1983    1.1433 H         1 <0>         0.0784
     10 C8          0.9351   -2.1176    1.1383 C.3       1 <0>        -0.0351
     11 C9          1.0322   -2.6293   -0.2532 C.2       1 <0>        -0.2518
     12 C10         0.9457   -1.9236   -1.4076 C.2       1 <0>         0.1016
     13 N1          1.0409   -2.6421   -2.5199 N.2       1 <0>        -0.5108
     14 C11         1.2285   -3.9437   -2.4881 C.2       1 <0>         0.2371
     15 S1          1.2864   -4.2828   -0.8382 S.3       1 <0>         0.2006
     16 N2          1.3502   -4.8246   -3.5563 N.am      1 <0>        -0.6091
     17 C12         1.5406   -6.1391   -3.3274 C.2       1 <0>         0.5215
     18 O1          1.6056   -6.5533   -2.1894 O.2       1 <0>        -0.4992
     19 C13         1.6726   -7.0942   -4.4856 C.3       1 <0>        -0.0746
     20 C14         1.8796   -8.5141   -3.9546 C.3       1 <0>        -0.1308
     21 C15         0.3997   -7.0471   -5.3331 C.3       1 <0>        -0.1451
     22 C16         2.8727   -6.6910   -5.3448 C.3       1 <0>        -0.1458
     23 C17         0.7827   -0.4195   -1.3326 C.3       1 <0>         0.0190
     24 H3          1.7767    0.0466   -1.3617 H         1 <0>         0.0905
     25 C18        -0.0303    0.0911   -2.5184 C.3       1 <0>        -0.1309
     26 C19         0.7109   -0.1995   -3.7980 C.2       1 <0>         0.5165
     27 O2          1.7854   -0.7607   -3.7623 O.2       1 <0>        -0.5045
     28 N3          0.1797    0.1644   -4.9820 N.am      1 <0>        -0.7360
     29 C20         0.9002   -0.1180   -6.2259 C.3       1 <0>         0.1286
     30 C21         0.0849    0.3939   -7.4150 C.3       1 <0>         0.0475
     31 O3         -0.0112    1.8182   -7.3488 O.3       1 <0>        -0.3889
     32 C22        -0.7571    2.4008   -8.4195 C.3       1 <0>         0.0303
     33 C23         0.6443    1.2376    2.9447 C.3       1 <0>        -0.1483
     34 C24         0.8879   -1.1050    3.6237 C.3       1 <0>         0.0806
     35 O4          0.3778   -0.7235    4.9029 O.3       1 <0>        -0.5692
     36 O5         -1.5450   -1.7454    2.8987 O.3       1 <0>        -0.5633
     37 H4          1.1411    1.8703    0.0484 H         1 <0>         0.0592
     38 H5         -0.3362    1.8631   -0.9445 H         1 <0>         0.0628
     39 H6         -0.4574    1.8743    0.8313 H         1 <0>         0.0701
     40 H7         -1.8978   -0.1749   -0.7954 H         1 <0>         0.0632
     41 H8         -1.3457   -1.6083    0.0964 H         1 <0>         0.0709
     42 H9         -2.0642    1.1219    1.2833 H         1 <0>         0.0746
     43 H10        -3.0041   -0.3597    1.3868 H         1 <0>         0.0611
     44 H11         1.8180   -2.4729    1.6827 H         1 <0>         0.0718
     45 H12         0.0376   -2.5363    1.5936 H         1 <0>         0.1039
     46 H13         1.2982   -4.4933   -4.4665 H         1 <0>         0.4205
     47 H14         1.0247   -8.8013   -3.3425 H         1 <0>         0.0658
     48 H15         1.9751   -9.2049   -4.7923 H         1 <0>         0.0689
     49 H16         2.7864   -8.5476   -3.3508 H         1 <0>         0.0660
     50 H17         0.2523   -6.0355   -5.7114 H         1 <0>         0.0604
     51 H18         0.4952   -7.7379   -6.1708 H         1 <0>         0.0768
     52 H19        -0.4552   -7.3343   -4.7210 H         1 <0>         0.0649
     53 H20         3.7795   -6.7246   -4.7410 H         1 <0>         0.0653
     54 H21         2.9682   -7.3819   -6.1825 H         1 <0>         0.0767
     55 H22         2.7252   -5.6795   -5.7231 H         1 <0>         0.0612
     56 H23        -0.9984   -0.4095   -2.5376 H         1 <0>         0.0912
     57 H24        -0.1791    1.1664   -2.4209 H         1 <0>         0.0985
     58 H25        -0.6797    0.6133   -5.0105 H         1 <0>         0.3983
     59 H26         1.8683    0.3825   -6.2067 H         1 <0>         0.0722
     60 H27         1.0491   -1.1934   -6.3234 H         1 <0>         0.0780
     61 H28         0.5770    0.1058   -8.3439 H         1 <0>         0.0649
     62 H29        -0.9147   -0.0395   -7.3838 H         1 <0>         0.0556
     63 H30        -1.7742    2.0089   -8.4091 H         1 <0>         0.0420
     64 H31        -0.7836    3.4835   -8.2968 H         1 <0>         0.0879
     65 H32        -0.2825    2.1542   -9.3692 H         1 <0>         0.0426
     66 H33         0.4249    1.3764    4.0033 H         1 <0>         0.0716
     67 H34         1.7072    1.4034    2.7692 H         1 <0>         0.0593
     68 H35         0.0637    1.9486    2.3570 H         1 <0>         0.0621
     69 H36         0.6232   -2.1429    3.4217 H         1 <0>         0.0630
     70 H37         1.9728   -0.9992    3.6189 H         1 <0>         0.0386
     71 H38         0.7193   -1.2531    5.6364 H         1 <0>         0.3773
     72 H39        -2.4847   -1.9056    3.0610 H         1 <0>         0.3742
@<TRIPOS>BOND
     1    1    2 1
     2    1   37 1
     3    1   38 1
     4    1   39 1
     5    2    8 1
     6    2   23 1
     7    2    3 1
     8    3    4 1
     9    3   40 1
    10    3   41 1
    11    4    5 1
    12    4   42 1
    13    4   43 1
    14    5    6 1
    15    5    7 1
    16    5   36 1
    17    7    8 1
    18    7   33 1
    19    7   34 1
    20    8    9 1
    21    8   10 1
    22   10   11 1
    23   10   44 1
    24   10   45 1
    25   11   15 1
    26   11   12 2
    27   12   13 1
    28   12   23 1
    29   13   14 2
    30   14   15 1
    31   14   16 1
    32   16   17 am
    33   16   46 1
    34   17   18 2
    35   17   19 1
    36   19   20 1
    37   19   21 1
    38   19   22 1
    39   20   47 1
    40   20   48 1
    41   20   49 1
    42   21   50 1
    43   21   51 1
    44   21   52 1
    45   22   53 1
    46   22   54 1
    47   22   55 1
    48   23   24 1
    49   23   25 1
    50   25   26 1
    51   25   56 1
    52   25   57 1
    53   26   27 2
    54   26   28 am
    55   28   29 1
    56   28   58 1
    57   29   30 1
    58   29   59 1
    59   29   60 1
    60   30   31 1
    61   30   61 1
    62   30   62 1
    63   31   32 1
    64   32   63 1
    65   32   64 1
    66   32   65 1
    67   33   66 1
    68   33   67 1
    69   33   68 1
    70   34   35 1
    71   34   69 1
    72   34   70 1
    73   35   71 1
    74   36   72 1
@<TRIPOS>MOLECULE
ZINC58994814
   46    48     0     0     0
SMALL
USER_CHARGES

@<TRIPOS>ATOM
      1 C1         -0.0178    1.4264    0.0332 C.3       1 <0>         0.0233
      2 O1          0.0016   -0.0024    0.0149 O.3       1 <0>        -0.3059
      3 C2         -1.2015   -0.6363    0.0200 C.ar      1 <0>         0.0988
      4 C3         -2.3710    0.1007    0.0364 C.ar      1 <0>        -0.1674
      5 C4         -3.6053   -0.5540    0.0416 C.ar      1 <0>        -0.0248
      6 C5         -3.6515   -1.9504    0.0302 C.ar      1 <0>        -0.0949
      7 C6         -2.4805   -2.6786    0.0139 C.ar      1 <0>        -0.1105
      8 C7         -1.2553   -2.0282    0.0030 C.ar      1 <0>         0.0947
      9 O2         -0.1040   -2.7511   -0.0187 O.3       1 <0>        -0.4858
     10 C8         -4.8558    0.2267    0.0596 C.2       1 <0>         0.1059
     11 N1         -6.0018   -0.3833    0.0644 N.2       1 <0>        -0.1944
     12 N2         -7.1902    0.3586    0.0814 N.pl3     1 <0>        -0.5488
     13 C9         -8.4107   -0.2910    0.0866 C.2       1 <0>         0.5619
     14 N3         -8.5936   -1.5949    0.0825 N.2       1 <0>        -0.5171
     15 C10        -9.9032   -1.8654    0.0897 C.2       1 <0>         0.2160
     16 N4        -10.5716   -0.7366    0.0985 N.2       1 <0>        -0.3227
     17 N5         -9.6244    0.3000    0.1025 N.pl3     1 <0>        -0.5027
     18 S1        -10.6157   -3.4769    0.0877 S.3       1 <0>         0.1194
     19 C11       -12.4029   -3.1666    0.1003 C.3       1 <0>        -0.1647
     20 C12       -13.1409   -4.4805    0.0997 C.2       1 <0>         0.5383
     21 O3        -12.5221   -5.5236    0.0916 O.2       1 <0>        -0.4956
     22 N6        -14.4886   -4.4965    0.1082 N.am      1 <0>        -0.6677
     23 C13       -15.1746   -5.7124    0.0099 C.ar      1 <0>         0.1580
     24 C14       -16.3750   -5.7797   -0.6852 C.ar      1 <0>        -0.1367
     25 C15       -17.0496   -6.9809   -0.7810 C.ar      1 <0>        -0.0715
     26 C16       -16.5306   -8.1167   -0.1852 C.ar      1 <0>        -0.1040
     27 C17       -15.3349   -8.0526    0.5079 C.ar      1 <0>        -0.0705
     28 C18       -14.6534   -6.8551    0.6024 C.ar      1 <0>        -0.1141
     29 Br1       -17.4576   -9.7596   -0.3180 Br        1 <0>        -0.0481
     30 H1          1.0047    1.8038    0.0268 H         1 <0>         0.1029
     31 H2         -0.5462    1.7938   -0.8465 H         1 <0>         0.0568
     32 H3         -0.5268    1.7713    0.9332 H         1 <0>         0.0564
     33 H4         -2.3306    1.1799    0.0455 H         1 <0>         0.1379
     34 H5         -4.6041   -2.4593    0.0346 H         1 <0>         0.1452
     35 H6         -2.5175   -3.7580    0.0051 H         1 <0>         0.1432
     36 H7          0.2387   -2.9714    0.8583 H         1 <0>         0.3906
     37 H8         -4.8185    1.3060    0.0687 H         1 <0>         0.1236
     38 H9         -7.1567    1.3280    0.0897 H         1 <0>         0.4010
     39 H10       -12.6673   -2.6018    0.9943 H         1 <0>         0.1273
     40 H11       -12.6786   -2.5946   -0.7856 H         1 <0>         0.1275
     41 H12       -14.9830   -3.6653    0.1824 H         1 <0>         0.4168
     42 H13       -16.7807   -4.8933   -1.1501 H         1 <0>         0.1364
     43 H14       -17.9834   -7.0337   -1.3211 H         1 <0>         0.1382
     44 H15       -14.9322   -8.9406    0.9723 H         1 <0>         0.1383
     45 H16       -13.7180   -6.8065    1.1400 H         1 <0>         0.1500
     46 H17        -9.8063    1.2528    0.1125 H         1 <0>         0.4394
@<TRIPOS>BOND
     1    1    2 1
     2    1   30 1
     3    1   31 1
     4    1   32 1
     5    2    3 1
     6    3    8 ar
     7    3    4 ar
     8    4    5 ar
     9    4   33 1
    10    5    6 ar
    11    5   10 1
    12    6    7 ar
    13    6   34 1
    14    7    8 ar
    15    7   35 1
    16    8    9 1
    17    9   36 1
    18   10   11 2
    19   10   37 1
    20   11   12 1
    21   12   13 1
    22   12   38 1
    23   13   17 1
    24   13   14 2
    25   14   15 1
    26   15   16 2
    27   15   18 1
    28   16   17 1
    29   17   46 1
    30   18   19 1
    31   19   20 1
    32   19   39 1
    33   19   40 1
    34   20   21 2
    35   20   22 am
    36   22   23 1
    37   22   41 1
    38   23   28 ar
    39   23   24 ar
    40   24   25 ar
    41   24   42 1
    42   25   26 ar
    43   25   43 1
    44   26   27 ar
    45   26   29 1
    46   27   28 ar
    47   27   44 1
    48   28   45 1
@<TRIPOS>MOLECULE
ZINC09037820
   56    58     0     0     0
SMALL
USER_CHARGES
N-[2-(4-ethyl-6-oxo-1H-pyrimidin-2-yl)-5-methyl-pyrazol-3-yl]-N'-[2-(4-sulfamoylphenyl)ethyl]oxamide
@<TRIPOS>ATOM
      1 C1         -0.3526   -3.6351   -1.4495 C.3       1 <0>        -0.1459
      2 C2         -0.8188   -3.4133   -0.0092 C.3       1 <0>        -0.0783
      3 C3         -1.9795   -2.4521    0.0007 C.2       1 <0>         0.2152
      4 C4         -3.2576   -2.9278    0.0050 C.2       1 <0>        -0.2999
      5 C5         -4.3240   -2.0089    0.0143 C.2       1 <0>         0.5378
      6 O1         -5.4803   -2.3978    0.0187 O.2       1 <0>        -0.5215
      7 N1         -4.0416   -0.6885    0.0237 N.am      1 <0>        -0.6227
      8 H1         -4.7604   -0.0373    0.0341 H         1 <0>         0.4286
      9 C6         -2.7471   -0.2749    0.0143 C.2       1 <0>         0.6528
     10 N2         -1.7557   -1.1389    0.0056 N.2       1 <0>        -0.5757
     11 N3         -2.4672    1.0791    0.0196 N.pl3     1 <0>        -0.3531
     12 C7         -1.2244    1.6445    0.0168 C.2       1 <0>         0.3476
     13 C8         -1.3924    2.9950    0.0309 C.2       1 <0>        -0.2551
     14 C9         -2.7664    3.2570    0.0329 C.2       1 <0>         0.1394
     15 N4         -3.4077    2.1172    0.0297 N.2       1 <0>        -0.2865
     16 C10        -3.4014    4.6236    0.0433 C.3       1 <0>        -0.0814
     17 N5         -0.0111    0.9658    0.0074 N.am      1 <0>        -0.6112
     18 C11         1.1468    1.6555   -0.0000 C.2       1 <0>         0.5146
     19 O2          1.1304    2.8693    0.0067 O.2       1 <0>        -0.4826
     20 C12         2.4498    0.9267   -0.0164 C.2       1 <0>         0.5171
     21 O3          2.4663   -0.2869   -0.0230 O.2       1 <0>        -0.5006
     22 N6          3.6077    1.6164   -0.0237 N.am      1 <0>        -0.6961
     23 C13         4.8862    0.9012   -0.0398 C.3       1 <0>         0.1215
     24 C14         6.0355    1.9112   -0.0453 C.3       1 <0>        -0.1029
     25 C15         7.3506    1.1755   -0.0618 C.ar      1 <0>        -0.0243
     26 C16         7.9680    0.8367    1.1277 C.ar      1 <0>        -0.1337
     27 C17         9.1722    0.1580    1.1126 C.ar      1 <0>        -0.0148
     28 C18         9.7635   -0.1738   -0.0921 C.ar      1 <0>        -0.6757
     29 C19         9.1487    0.1697   -1.2816 C.ar      1 <0>        -0.0148
     30 C20         7.9424    0.8446   -1.2665 C.ar      1 <0>        -0.1337
     31 S1         11.3006   -1.0350   -0.1114 S.o2      1 <0>         2.7007
     32 O4         11.3980   -1.7199    1.1298 O.2       1 <0>        -0.9618
     33 O5         11.3733   -1.7081   -1.3607 O.2       1 <0>        -0.9618
     34 N7         12.5009    0.1058   -0.1179 N.pl3     1 <0>        -1.2498
     35 H2         -1.1721   -4.0491   -2.0369 H         1 <0>         0.0586
     36 H3         -0.0405   -2.6841   -1.8809 H         1 <0>         0.0598
     37 H4          0.4869   -4.3303   -1.4566 H         1 <0>         0.0705
     38 H5          0.0007   -2.9993    0.5783 H         1 <0>         0.0928
     39 H6         -1.1309   -4.3643    0.4223 H         1 <0>         0.0938
     40 H7         -3.4483   -3.9908    0.0011 H         1 <0>         0.1655
     41 H8         -0.6044    3.7335    0.0370 H         1 <0>         0.1932
     42 H9         -3.5500    4.9474    1.0734 H         1 <0>         0.0913
     43 H10        -2.7496    5.3310   -0.4694 H         1 <0>         0.0912
     44 H11        -4.3638    4.5810   -0.4666 H         1 <0>         0.0830
     45 H12         0.0021   -0.0041    0.0020 H         1 <0>         0.4419
     46 H13         3.5945    2.5863   -0.0184 H         1 <0>         0.4163
     47 H14         4.9609    0.2706    0.8462 H         1 <0>         0.0822
     48 H15         4.9439    0.2802   -0.9337 H         1 <0>         0.0822
     49 H16         5.9607    2.5418   -0.9312 H         1 <0>         0.0914
     50 H17         5.9777    2.5322    0.8486 H         1 <0>         0.0914
     51 H18         7.5079    1.0992    2.0688 H         1 <0>         0.1368
     52 H19         9.6524   -0.1106    2.0419 H         1 <0>         0.1455
     53 H20         9.6107   -0.0895   -2.2228 H         1 <0>         0.1455
     54 H21         7.4620    1.1129   -2.1958 H         1 <0>         0.1368
     55 H22        12.2739    1.0488   -0.1112 H         1 <0>         0.4167
     56 H23        13.4311   -0.1690   -0.1284 H         1 <0>         0.4221
@<TRIPOS>BOND
     1    1    2 1
     2    1   35 1
     3    1   36 1
     4    1   37 1
     5    2    3 1
     6    2   38 1
     7    2   39 1
     8    3   10 1
     9    3    4 2
    10    4    5 1
    11    4   40 1
    12    5    6 2
    13    5    7 am
    14    7    8 1
    15    7    9 1
    16    9   10 2
    17    9   11 1
    18   11   15 1
    19   11   12 1
    20   12   13 2
    21   12   17 1
    22   13   14 1
    23   13   41 1
    24   14   15 2
    25   14   16 1
    26   16   42 1
    27   16   43 1
    28   16   44 1
    29   17   18 am
    30   17   45 1
    31   18   19 2
    32   18   20 1
    33   20   21 2
    34   20   22 am
    35   22   23 1
    36   22   46 1
    37   23   24 1
    38   23   47 1
    39   23   48 1
    40   24   25 1
    41   24   49 1
    42   24   50 1
    43   25   30 ar
    44   25   26 ar
    45   26   27 ar
    46   26   51 1
    47   27   28 ar
    48   27   52 1
    49   28   29 ar
    50   28   31 1
    51   29   30 ar
    52   29   53 1
    53   30   54 1
    54   31   32 2
    55   31   33 2
    56   31   34 1
    57   34   55 1
    58   34   56 1
@<TRIPOS>MOLECULE
ZINC12896777
   65    67     0     0     0
SMALL
USER_CHARGES
N-methyl-N-[(2S,3R,4S,5S)-2,3,4,5,6-pentahydroxyhexyl]-2-(2,3,5,9-tetramethyl-7-oxo-furo[3,2-g]chromen-6-yl)acetamide
@<TRIPOS>ATOM
      1 C1          4.7014   -4.1865   -7.6503 C.3       1 <0>        -0.0822
      2 C2          3.2022   -4.3036   -7.7495 C.2       1 <0>        -0.1718
      3 C3          2.5098   -5.0515   -8.6174 C.2       1 <0>         0.0354
      4 O1          1.1891   -4.9046   -8.4098 O.3       1 <0>        -0.1837
      5 C4          0.9525   -4.0508   -7.3927 C.ar      1 <0>         0.1059
      6 C5          2.2061   -3.6190   -6.9133 C.ar      1 <0>        -0.1368
      7 C6          2.2847   -2.7244   -5.8554 C.ar      1 <0>        -0.0106
      8 C7          1.1091   -2.2545   -5.2696 C.ar      1 <0>        -0.1512
      9 C8          1.1549   -1.3033   -4.1548 C.2       1 <0>         0.0472
     10 C9         -0.0203   -0.8842   -3.6205 C.2       1 <0>        -0.2081
     11 C10        -1.2399   -1.3576   -4.1491 C.2       1 <0>         0.5253
     12 O2         -2.2868   -0.9692   -3.6631 O.2       1 <0>        -0.4568
     13 O3         -1.2772   -2.2238   -5.1730 O.3       1 <0>        -0.2635
     14 C11        -0.1448   -2.6866   -5.7493 C.ar      1 <0>         0.1643
     15 C12        -0.2118   -3.5794   -6.8048 C.ar      1 <0>        -0.0886
     16 C13        -1.5525   -4.0398   -7.3165 C.3       1 <0>        -0.1094
     17 C14        -0.0226    0.0888   -2.4697 C.3       1 <0>        -0.0832
     18 C15         0.0001   -0.6716   -1.1688 C.2       1 <0>         0.5204
     19 O4          0.0165   -1.8843   -1.1755 O.2       1 <0>        -0.5319
     20 N1          0.0021   -0.0041    0.0020 N.am      1 <0>        -0.6097
     21 C16        -0.0178    1.4608    0.0101 C.3       1 <0>         0.0773
     22 C17         0.0241   -0.7433    1.2666 C.3       1 <0>         0.0899
     23 C18        -1.4105   -1.0203    1.7205 C.3       1 <0>         0.0650
     24 H1         -1.9235   -1.6122    0.9626 H         1 <0>         0.1157
     25 C19        -1.3875   -1.7923    3.0413 C.3       1 <0>         0.0537
     26 H2         -0.9413   -2.7738    2.8807 H         1 <0>         0.1104
     27 C20        -2.8175   -1.9607    3.5586 C.3       1 <0>         0.0562
     28 H3         -3.2637   -0.9793    3.7192 H         1 <0>         0.1085
     29 C21        -2.7945   -2.7327    4.8793 C.3       1 <0>         0.0827
     30 H4         -2.3483   -3.7142    4.7188 H         1 <0>         0.1044
     31 C22        -4.2245   -2.9011    5.3966 C.3       1 <0>         0.0447
     32 O5         -4.2142   -3.7207    6.5672 O.3       1 <0>        -0.5657
     33 O6         -2.0223   -2.0099    5.8402 O.3       1 <0>        -0.5286
     34 O7         -3.5896   -2.6836    2.5977 O.3       1 <0>        -0.5431
     35 O8         -0.6153   -1.0695    4.0022 O.3       1 <0>        -0.5301
     36 O9         -2.0993    0.2181    1.9047 O.3       1 <0>        -0.5447
     37 C23         2.4713   -0.8082   -3.6135 C.3       1 <0>        -0.1317
     38 C24         3.1226   -5.9318   -9.6761 C.3       1 <0>        -0.0813
     39 H5          5.0454   -3.3734   -8.2894 H         1 <0>         0.0726
     40 H6          4.9822   -3.9806   -6.6174 H         1 <0>         0.0692
     41 H7          5.1609   -5.1210   -7.9722 H         1 <0>         0.0719
     42 H8          3.2460   -2.3946   -5.4900 H         1 <0>         0.1458
     43 H9         -1.8922   -3.3658   -8.1028 H         1 <0>         0.0777
     44 H10        -1.4612   -5.0492   -7.7175 H         1 <0>         0.0739
     45 H11        -2.2737   -4.0374   -6.4992 H         1 <0>         0.0794
     46 H12        -0.9215    0.7036   -2.5156 H         1 <0>         0.1152
     47 H13         0.8582    0.7278   -2.5324 H         1 <0>         0.1115
     48 H14         1.0048    1.8381    0.0023 H         1 <0>         0.0575
     49 H15        -0.5450    1.8219   -0.8730 H         1 <0>         0.0743
     50 H16        -0.5280    1.8123    0.9069 H         1 <0>         0.0768
     51 H17         0.5496   -1.6879    1.1262 H         1 <0>         0.0933
     52 H18         0.5371   -0.1514    2.0246 H         1 <0>         0.0891
     53 H19        -4.6398   -1.9235    5.6413 H         1 <0>         0.0475
     54 H20        -4.8358   -3.3735    4.6277 H         1 <0>         0.0625
     55 H21        -5.0893   -3.8703    6.9503 H         1 <0>         0.3810
     56 H22        -2.3621   -1.1252    6.0327 H         1 <0>         0.3680
     57 H23        -3.2498   -3.5682    2.4052 H         1 <0>         0.3792
     58 H24        -0.9552   -0.1848    4.1947 H         1 <0>         0.3673
     59 H25        -1.6974    0.7971    2.5667 H         1 <0>         0.3638
     60 H26         2.8107   -1.4731   -2.8193 H         1 <0>         0.0940
     61 H27         3.2104   -0.7919   -4.4144 H         1 <0>         0.0830
     62 H28         2.3448    0.1986   -3.2152 H         1 <0>         0.0847
     63 H29         2.3316   -6.4256  -10.2405 H         1 <0>         0.0818
     64 H30         3.7247   -5.3232  -10.3507 H         1 <0>         0.0922
     65 H31         3.7546   -6.6831   -9.2027 H         1 <0>         0.0922
@<TRIPOS>BOND
     1    1    2 1
     2    1   39 1
     3    1   40 1
     4    1   41 1
     5    2    6 1
     6    2    3 2
     7    3    4 1
     8    3   38 1
     9    4    5 1
    10    5   15 ar
    11    5    6 ar
    12    6    7 ar
    13    7    8 ar
    14    7   42 1
    15    8   14 ar
    16    8    9 1
    17    9   10 2
    18    9   37 1
    19   10   11 1
    20   10   17 1
    21   11   12 2
    22   11   13 1
    23   13   14 1
    24   14   15 ar
    25   15   16 1
    26   16   43 1
    27   16   44 1
    28   16   45 1
    29   17   18 1
    30   17   46 1
    31   17   47 1
    32   18   19 2
    33   18   20 am
    34   20   21 1
    35   20   22 1
    36   21   48 1
    37   21   49 1
    38   21   50 1
    39   22   23 1
    40   22   51 1
    41   22   52 1
    42   23   24 1
    43   23   25 1
    44   23   36 1
    45   25   26 1
    46   25   27 1
    47   25   35 1
    48   27   28 1
    49   27   29 1
    50   27   34 1
    51   29   30 1
    52   29   31 1
    53   29   33 1
    54   31   32 1
    55   31   53 1
    56   31   54 1
    57   32   55 1
    58   33   56 1
    59   34   57 1
    60   35   58 1
    61   36   59 1
    62   37   60 1
    63   37   61 1
    64   37   62 1
    65   38   63 1
    66   38   64 1
    67   38   65 1
@<TRIPOS>MOLECULE
ZINC21327376
   60    61     0     0     0
SMALL
USER_CHARGES
[2-oxo-2-[[2-oxo-2-[(2,4,6-trimethylphenyl)amino]ethyl]amino]ethyl] (3R)-3-(4-chlorophenyl)-3-ureido-propanoate
@<TRIPOS>ATOM
      1 C1         -0.7575  -13.7665    6.8007 C.3       1 <0>        -0.1186
      2 C2         -0.8795  -12.2644    6.7921 C.ar      1 <0>        -0.0770
      3 C3         -0.7583  -11.5556    7.9733 C.ar      1 <0>        -0.1199
      4 C4         -0.8696  -10.1790    7.9688 C.ar      1 <0>        -0.0833
      5 C5         -1.1031   -9.5066    6.7764 C.ar      1 <0>         0.1234
      6 C6         -1.2292  -10.2218    5.5926 C.ar      1 <0>        -0.0585
      7 C7         -1.1121  -11.5979    5.6031 C.ar      1 <0>        -0.1197
      8 C8         -1.4883   -9.4966    4.2972 C.3       1 <0>        -0.1421
      9 N1         -1.2169   -8.1120    6.7685 N.am      1 <0>        -0.6774
     10 C9         -0.4095   -7.3745    5.9808 C.2       1 <0>         0.5081
     11 O1          0.3450   -7.9214    5.2045 O.2       1 <0>        -0.5144
     12 C10        -0.4442   -5.8702    6.0646 C.3       1 <0>         0.1072
     13 N2          0.5184   -5.3059    5.1153 N.am      1 <0>        -0.7291
     14 C11         0.6616   -3.9696    5.0148 C.2       1 <0>         0.5212
     15 O2         -0.0065   -3.2341    5.7103 O.2       1 <0>        -0.5201
     16 C12         1.6518   -3.3891    4.0383 C.3       1 <0>         0.0492
     17 O3          1.6184   -1.9397    4.1190 O.3       1 <0>        -0.3332
     18 C13         2.4476   -1.2649    3.3073 C.2       1 <0>         0.4599
     19 O4          3.1772   -1.8654    2.5544 O.2       1 <0>        -0.4883
     20 C14         2.4686    0.2417    3.3352 C.3       1 <0>        -0.1174
     21 C15         3.4931    0.7563    2.3221 C.3       1 <0>         0.2206
     22 H1          4.4785    0.2967    2.4885 H         1 <0>         0.1102
     23 C16         3.6030    2.2550    2.4359 C.ar      1 <0>        -0.0954
     24 C17         2.6258    3.0632    1.8855 C.ar      1 <0>        -0.0884
     25 C18         2.7232    4.4376    1.9946 C.ar      1 <0>        -0.1124
     26 C19         3.8047    5.0048    2.6447 C.ar      1 <0>        -0.0309
     27 C20         4.7853    4.1955    3.1904 C.ar      1 <0>        -0.1091
     28 C21         4.6839    2.8211    3.0857 C.ar      1 <0>        -0.0854
     29 Cl1         3.9316    6.7312    2.7754 Cl        1 <0>        -0.0690
     30 N3          3.0624    0.3997    0.9680 N.am      1 <0>        -0.7477
     31 C22         3.9650    0.3335   -0.0307 C.2       1 <0>         0.7164
     32 O5          5.1480    0.4813    0.2082 O.2       1 <0>        -0.5971
     33 N4          3.5563    0.1034   -1.2943 N.am      1 <0>        -0.8921
     34 C23        -0.7373   -9.4074    9.2565 C.3       1 <0>        -0.1169
     35 H2         -0.5749  -14.1136    7.8284 H         1 <0>         0.0664
     36 H3          0.0810  -14.0699    6.1567 H         1 <0>         0.0712
     37 H4         -1.6897  -14.2122    6.4233 H         1 <0>         0.0712
     38 H5         -0.5766  -12.0791    8.9003 H         1 <0>         0.1255
     39 H6         -1.2063  -12.1543    4.6823 H         1 <0>         0.1242
     40 H7         -1.5570  -10.2256    3.4763 H         1 <0>         0.0599
     41 H8         -0.6637   -8.7964    4.0977 H         1 <0>         0.1106
     42 H9         -2.4333   -8.9385    4.3721 H         1 <0>         0.0601
     43 H10        -1.9654   -7.6176    7.4052 H         1 <0>         0.4355
     44 H11        -1.4548   -5.5125    5.8183 H         1 <0>         0.1024
     45 H12        -0.1817   -5.5536    7.0848 H         1 <0>         0.1036
     46 H13         1.1244   -5.9729    4.4845 H         1 <0>         0.4391
     47 H14         2.6624   -3.7468    4.2846 H         1 <0>         0.1058
     48 H15         1.3893   -3.7057    3.0181 H         1 <0>         0.1053
     49 H16         1.4714    0.6271    3.0763 H         1 <0>         0.1187
     50 H17         2.7445    0.5860    4.3428 H         1 <0>         0.1288
     51 H18         1.7838    2.6205    1.3742 H         1 <0>         0.1289
     52 H19         1.9574    5.0688    1.5684 H         1 <0>         0.1335
     53 H20         5.6300    4.6377    3.6977 H         1 <0>         0.1355
     54 H21         5.4495    2.1893    3.5112 H         1 <0>         0.1344
     55 H22         2.0024    0.1860    0.7664 H         1 <0>         0.4095
     56 H23         4.2930    0.0494   -2.1094 H         1 <0>         0.4366
     57 H24         2.4861   -0.0304   -1.5105 H         1 <0>         0.4108
     58 H25        -0.8543   -8.3326    9.0536 H         1 <0>         0.0640
     59 H26         0.2548   -9.5921    9.6943 H         1 <0>         0.0726
     60 H27        -1.5158   -9.7343    9.9615 H         1 <0>         0.0731
@<TRIPOS>BOND
     1    1    2 1
     2    1   35 1
     3    1   36 1
     4    1   37 1
     5    2    7 ar
     6    2    3 ar
     7    3    4 ar
     8    3   38 1
     9    4    5 ar
    10    4   34 1
    11    5    6 ar
    12    5    9 1
    13    6    7 ar
    14    6    8 1
    15    7   39 1
    16    8   40 1
    17    8   41 1
    18    8   42 1
    19    9   10 am
    20    9   43 1
    21   10   11 2
    22   10   12 1
    23   12   13 1
    24   12   44 1
    25   12   45 1
    26   13   14 am
    27   13   46 1
    28   14   15 2
    29   14   16 1
    30   16   17 1
    31   16   47 1
    32   16   48 1
    33   17   18 1
    34   18   19 2
    35   18   20 1
    36   20   21 1
    37   20   49 1
    38   20   50 1
    39   21   22 1
    40   21   23 1
    41   21   30 1
    42   23   28 ar
    43   23   24 ar
    44   24   25 ar
    45   24   51 1
    46   25   26 ar
    47   25   52 1
    48   26   27 ar
    49   26   29 1
    50   27   28 ar
    51   27   53 1
    52   28   54 1
    53   30   31 am
    54   30   55 1
    55   31   32 2
    56   31   33 am
    57   33   56 1
    58   33   57 1
    59   34   58 1
    60   34   59 1
    61   34   60 1
@<TRIPOS>MOLECULE
ZINC12715882
   55    57     0     0     0
SMALL
USER_CHARGES

@<TRIPOS>ATOM
      1 C1          2.3128   -1.9687   -2.3889 C.3       1 <0>        -0.1159
      2 C2          1.0575   -1.8064   -1.5710 C.ar      1 <0>        -0.0797
      3 C3          0.0908   -0.8979   -1.9622 C.ar      1 <0>        -0.1080
      4 C4         -1.0621   -0.7456   -1.2144 C.ar      1 <0>        -0.1068
      5 C5         -1.2522   -1.5013   -0.0739 C.ar      1 <0>        -0.0852
      6 C6         -0.2837   -2.4147    0.3214 C.ar      1 <0>         0.1214
      7 C7          0.8712   -2.5690   -0.4350 C.ar      1 <0>        -0.1180
      8 N1         -0.4728   -3.1809    1.4759 N.am      1 <0>        -0.5452
      9 C8         -0.6982   -4.6244    1.3682 C.3       1 <0>         0.1255
     10 H1         -0.7214   -5.0640    2.3654 H         1 <0>         0.1335
     11 C9          0.4341   -5.2584    0.5576 C.3       1 <0>        -0.1702
     12 C10        -2.0133   -4.8773    0.6771 C.2       1 <0>         0.5047
     13 O1         -2.6951   -3.9437    0.3106 O.2       1 <0>        -0.5224
     14 N2         -2.4317   -6.1410    0.4663 N.am      1 <0>        -0.7217
     15 C11        -3.7102   -6.3869   -0.2056 C.3       1 <0>         0.1126
     16 C12        -3.9456   -7.8945   -0.3181 C.3       1 <0>         0.0676
     17 H2         -3.0929   -8.3663   -0.8064 H         1 <0>         0.0885
     18 C13        -5.2301   -8.1648   -1.1307 C.3       1 <0>        -0.1483
     19 C14        -5.8586   -9.3611   -0.3654 C.3       1 <0>        -0.1563
     20 C15        -5.4457   -9.0285    1.0905 C.3       1 <0>         0.0487
     21 O2         -4.1304   -8.4561    0.9866 O.3       1 <0>        -0.3758
     22 C16        -0.4477   -2.5913    2.6876 C.2       1 <0>         0.6324
     23 O3         -0.6965   -3.2416    3.6861 O.2       1 <0>        -0.5310
     24 C17        -0.1211   -1.1689    2.8029 C.2       1 <0>        -0.3740
     25 C18        -0.1498   -0.3435    3.9279 C.2       1 <0>         0.2705
     26 C19         0.2293    0.9706    3.6616 C.2       1 <0>        -0.0279
     27 N3          0.5666    1.3124    2.4358 N.2       1 <0>        -0.4274
     28 S1          0.4266   -0.0311    1.5461 S.3       1 <0>         0.4251
     29 C20         0.2520    1.9710    4.7444 C.2       1 <0>         0.6002
     30 O4          0.0578    1.6268    5.8944 O.2       1 <0>        -0.5396
     31 N4          0.4878    3.2671    4.4596 N.am      1 <0>        -0.8304
     32 N5         -0.5205   -0.7884    5.1899 N.pl3     1 <0>        -0.8077
     33 H3          2.1856   -2.7936   -3.0900 H         1 <0>         0.0718
     34 H4          2.5081   -1.0494   -2.9410 H         1 <0>         0.0696
     35 H5          3.1527   -2.1805   -1.7272 H         1 <0>         0.0683
     36 H6          0.2370   -0.3059   -2.8536 H         1 <0>         0.1275
     37 H7         -1.8147   -0.0348   -1.5222 H         1 <0>         0.1302
     38 H8         -2.1528   -1.3816    0.5100 H         1 <0>         0.1297
     39 H9          1.6244   -3.2814   -0.1325 H         1 <0>         0.1328
     40 H10         0.5503   -4.7229   -0.3846 H         1 <0>         0.0791
     41 H11         1.3631   -5.2013    1.1249 H         1 <0>         0.0773
     42 H12         0.1955   -6.3025    0.3551 H         1 <0>         0.0774
     43 H13        -1.8864   -6.8877    0.7594 H         1 <0>         0.4040
     44 H14        -4.5168   -5.9352    0.3719 H         1 <0>         0.0720
     45 H15        -3.6870   -5.9473   -1.2028 H         1 <0>         0.0784
     46 H16        -5.8923   -7.2993   -1.1088 H         1 <0>         0.0824
     47 H17        -4.9887   -8.4440   -2.1563 H         1 <0>         0.0874
     48 H18        -6.9432   -9.3706   -0.4738 H         1 <0>         0.0862
     49 H19        -5.4249  -10.3068   -0.6904 H         1 <0>         0.0806
     50 H20        -6.1391   -8.3086    1.5253 H         1 <0>         0.0621
     51 H21        -5.4157   -9.9369    1.6921 H         1 <0>         0.0880
     52 H22         0.6427    3.5417    3.5423 H         1 <0>         0.4116
     53 H23         0.5028    3.9253    5.1720 H         1 <0>         0.4099
     54 H24        -0.6409   -1.7369    5.3538 H         1 <0>         0.4162
     55 H25        -0.6591   -0.1508    5.9076 H         1 <0>         0.4181
@<TRIPOS>BOND
     1    1    2 1
     2    1   33 1
     3    1   34 1
     4    1   35 1
     5    2    7 ar
     6    2    3 ar
     7    3    4 ar
     8    3   36 1
     9    4    5 ar
    10    4   37 1
    11    5    6 ar
    12    5   38 1
    13    6    7 ar
    14    6    8 1
    15    7   39 1
    16    8    9 1
    17    8   22 am
    18    9   10 1
    19    9   11 1
    20    9   12 1
    21   11   40 1
    22   11   41 1
    23   11   42 1
    24   12   13 2
    25   12   14 am
    26   14   15 1
    27   14   43 1
    28   15   16 1
    29   15   44 1
    30   15   45 1
    31   16   17 1
    32   16   21 1
    33   16   18 1
    34   18   19 1
    35   18   46 1
    36   18   47 1
    37   19   20 1
    38   19   48 1
    39   19   49 1
    40   20   21 1
    41   20   50 1
    42   20   51 1
    43   22   23 2
    44   22   24 1
    45   24   28 1
    46   24   25 2
    47   25   26 1
    48   25   32 1
    49   26   27 2
    50   26   29 1
    51   27   28 1
    52   29   30 2
    53   29   31 am
    54   31   52 1
    55   31   53 1
    56   32   54 1
    57   32   55 1
@<TRIPOS>MOLECULE
ZINC58994240
   39    41     0     0     0
SMALL
USER_CHARGES

@<TRIPOS>ATOM
      1 C1         -0.0168    1.3850    0.0097 C.ar      1 <0>        -0.1607
      2 C2          1.1648    2.0949    0.0022 C.ar      1 <0>        -0.0571
      3 C3          2.3857    1.4166   -0.0131 C.ar      1 <0>        -0.0941
      4 C4          2.4023    0.0143   -0.0207 C.ar      1 <0>         0.1678
      5 C5          1.2100   -0.6871   -0.0131 C.ar      1 <0>        -0.1816
      6 C6          0.0021   -0.0041    0.0020 C.ar      1 <0>         0.1419
      7 O1         -1.1668   -0.6966    0.0094 O.3       1 <0>        -0.4977
      8 O2          3.5852   -0.6529   -0.0360 O.3       1 <0>        -0.4686
      9 C7          3.6511    2.1714   -0.0216 C.2       1 <0>         0.0990
     10 N1          4.7846    1.5382   -0.0358 N.2       1 <0>        -0.1763
     11 N2          5.9878    2.2559   -0.0439 N.pl3     1 <0>        -0.5524
     12 C8          7.1945    1.5818   -0.0590 C.2       1 <0>         0.5623
     13 N3          7.3509    0.2745   -0.0727 N.2       1 <0>        -0.5123
     14 C9          8.6548   -0.0224   -0.0849 C.2       1 <0>         0.2151
     15 N4          9.3459    1.0926   -0.0789 N.2       1 <0>        -0.3246
     16 N5          8.4202    2.1482   -0.0680 N.pl3     1 <0>        -0.5044
     17 S1          9.3344   -1.6479   -0.1049 S.3       1 <0>         0.1224
     18 C10        11.1275   -1.3739   -0.1152 C.3       1 <0>        -0.1619
     19 C11        11.8386   -2.7024   -0.1327 C.2       1 <0>         0.5310
     20 O3         11.1988   -3.7327   -0.1377 O.2       1 <0>        -0.4475
     21 N6         13.1857   -2.7457   -0.1427 N.am      1 <0>        -0.6180
     22 C12        13.8416   -3.9711   -0.1589 C.2       1 <0>         0.2695
     23 N7         13.3187   -5.1780   -0.1722 N.2       1 <0>        -0.5201
     24 C13        14.0844   -6.2533   -0.1868 C.2       1 <0>         0.0633
     25 C14        15.4255   -6.0547   -0.1874 C.2       1 <0>        -0.2418
     26 S2         15.4977   -4.2708   -0.1736 S.3       1 <0>         0.1128
     27 H1         -0.9602    1.9104    0.0260 H         1 <0>         0.1369
     28 H2          1.1465    3.1747    0.0078 H         1 <0>         0.1376
     29 H3          1.2191   -1.7670   -0.0189 H         1 <0>         0.1402
     30 H4         -1.5135   -0.8924   -0.8718 H         1 <0>         0.3971
     31 H5          3.9366   -0.8509    0.8429 H         1 <0>         0.3969
     32 H6          3.6358    3.2513   -0.0160 H         1 <0>         0.1231
     33 H7          5.9740    3.2258   -0.0389 H         1 <0>         0.3980
     34 H8         11.4027   -0.8028   -1.0019 H         1 <0>         0.1289
     35 H9         11.4154   -0.8194    0.7780 H         1 <0>         0.1289
     36 H10        13.6974   -1.9216   -0.1387 H         1 <0>         0.4290
     37 H11        13.6614   -7.2469   -0.1974 H         1 <0>         0.1780
     38 H12        16.2288   -6.7765   -0.1973 H         1 <0>         0.2006
     39 H13         8.6214    3.0971   -0.0655 H         1 <0>         0.4386
@<TRIPOS>BOND
     1    1    6 ar
     2    1    2 ar
     3    1   27 1
     4    2    3 ar
     5    2   28 1
     6    3    4 ar
     7    3    9 1
     8    4    5 ar
     9    4    8 1
    10    5    6 ar
    11    5   29 1
    12    6    7 1
    13    7   30 1
    14    8   31 1
    15    9   10 2
    16    9   32 1
    17   10   11 1
    18   11   12 1
    19   11   33 1
    20   12   16 1
    21   12   13 2
    22   13   14 1
    23   14   15 2
    24   14   17 1
    25   15   16 1
    26   16   39 1
    27   17   18 1
    28   18   19 1
    29   18   34 1
    30   18   35 1
    31   19   20 2
    32   19   21 am
    33   21   22 1
    34   21   36 1
    35   22   26 1
    36   22   23 2
    37   23   24 1
    38   24   25 2
    39   24   37 1
    40   25   26 1
    41   25   38 1
@<TRIPOS>MOLECULE
ZINC09915710
   81    82     0     0     0
SMALL
USER_CHARGES
2-[6-ethoxy-4,5-dihydroxy-2-(hydroxymethyl)-2,3,4,5,6-pentamethyl-tetrahydropyran-3-yl]oxy-6-(hydroxymethyl)-2,3,4,5,6-pentamethyl-tetrahydropyran-3,4,5-triol
@<TRIPOS>ATOM
      1 C1         -1.0176   -0.8295    2.1287 C.3       1 <0>        -0.1505
      2 C2          0.2970   -0.2834    1.5680 C.3       1 <0>         0.0568
      3 O1          0.2592    1.1451    1.5707 O.3       1 <0>        -0.3735
      4 C3          1.4613    1.7670    1.0569 C.3       1 <0>         0.2793
      5 C4          1.2806    3.2738    1.1850 C.3       1 <0>         0.1072
      6 C5          2.5896    4.0436    1.1733 C.3       1 <0>         0.1277
      7 C6          3.7024    3.4198    1.9968 C.3       1 <0>         0.1325
      8 C7          3.8003    1.9074    1.8429 C.3       1 <0>         0.1663
      9 O2          2.5499    1.2679    1.7909 O.3       1 <0>        -0.3760
     10 C8          4.6513    1.5713    0.6109 C.3       1 <0>        -0.1608
     11 C9          4.5614    1.3647    3.0758 C.3       1 <0>         0.0843
     12 O3          4.7550   -0.0440    2.9341 O.3       1 <0>        -0.5622
     13 C10         3.5516    3.7770    3.4803 C.3       1 <0>        -0.1878
     14 O4          4.9550    3.9858    1.5498 O.3       1 <0>        -0.3472
     15 C11         4.9601    5.4352    1.4913 C.3       1 <0>         0.2745
     16 C12         6.3983    5.8634    1.2405 C.3       1 <0>         0.1036
     17 C13         6.6976    7.2951    1.6541 C.3       1 <0>         0.1712
     18 C14         6.1198    7.6542    3.0131 C.3       1 <0>         0.1294
     19 C15         4.6869    7.1855    3.2217 C.3       1 <0>         0.1181
     20 O5          4.4298    5.9053    2.7033 O.3       1 <0>        -0.3479
     21 C16         3.7005    8.2182    2.6617 C.3       1 <0>        -0.1856
     22 C17         4.4441    7.1273    4.7513 C.3       1 <0>         0.0707
     23 O6          3.1004    6.7121    5.0048 O.3       1 <0>        -0.5545
     24 C18         6.1686    9.1829    3.1856 C.3       1 <0>        -0.1878
     25 O7          6.9464    7.0738    4.0377 O.3       1 <0>        -0.5234
     26 C19         6.2465    8.2873    0.5800 C.3       1 <0>        -0.1976
     27 O8          8.1385    7.4199    1.7542 O.3       1 <0>        -0.5290
     28 C20         6.7058    5.7053   -0.2594 C.3       1 <0>        -0.1864
     29 O9          7.2744    4.9784    1.9606 O.3       1 <0>        -0.5237
     30 C21         4.0697    5.8223    0.3046 C.3       1 <0>        -0.2783
     31 C22         2.3212    5.4624    1.7186 C.3       1 <0>        -0.2695
     32 O10         3.0361    4.1934   -0.1864 O.3       1 <0>        -0.5341
     33 C23         0.4713    3.5897    2.4485 C.3       1 <0>        -0.1733
     34 O11         0.4952    3.7176    0.0559 O.3       1 <0>        -0.5608
     35 C24         1.5573    1.3826   -0.4249 C.3       1 <0>        -0.1941
     36 H1         -0.9887   -1.9191    2.1266 H         1 <0>         0.0709
     37 H2         -1.1539   -0.4716    3.1492 H         1 <0>         0.0613
     38 H3         -1.8468   -0.4868    1.5097 H         1 <0>         0.0597
     39 H4          0.4333   -0.6413    0.5475 H         1 <0>         0.0492
     40 H5          1.1262   -0.6260    2.1870 H         1 <0>         0.0623
     41 H6          4.1831    1.9909   -0.2796 H         1 <0>         0.0665
     42 H7          5.6482    1.9954    0.7312 H         1 <0>         0.0728
     43 H8          4.7271    0.4891    0.5058 H         1 <0>         0.0656
     44 H9          5.5300    1.8588    3.1513 H         1 <0>         0.0679
     45 H10         3.9813    1.5629    3.9771 H         1 <0>         0.0547
     46 H11         5.1584   -0.4652    3.7055 H         1 <0>         0.3786
     47 H12         4.5234    3.7136    3.9699 H         1 <0>         0.0710
     48 H13         3.1639    4.7915    3.5722 H         1 <0>         0.1216
     49 H14         2.8602    3.0796    3.9535 H         1 <0>         0.0549
     50 H15         3.8794    8.3500    1.5946 H         1 <0>         0.0624
     51 H16         2.6802    7.8684    2.8186 H         1 <0>         0.0831
     52 H17         3.8411    9.1700    3.1740 H         1 <0>         0.0759
     53 H18         5.1355    6.4154    5.2021 H         1 <0>         0.0630
     54 H19         4.6067    8.1149    5.1828 H         1 <0>         0.0618
     55 H20         2.8774    6.6534    5.9439 H         1 <0>         0.3815
     56 H21         5.5817    9.6563    2.3984 H         1 <0>         0.0761
     57 H22         5.7562    9.4522    4.1580 H         1 <0>         0.0627
     58 H23         7.2022    9.5229    3.1225 H         1 <0>         0.0786
     59 H24         6.6442    7.2573    4.9377 H         1 <0>         0.3642
     60 H25         5.1726    8.1884    0.4220 H         1 <0>         0.0772
     61 H26         6.4740    9.3026    0.9048 H         1 <0>         0.0836
     62 H27         6.7717    8.0777   -0.3518 H         1 <0>         0.0770
     63 H28         8.6075    7.2357    0.9288 H         1 <0>         0.3698
     64 H29         6.0268    6.3320   -0.8376 H         1 <0>         0.0762
     65 H30         7.7345    6.0091   -0.4534 H         1 <0>         0.0632
     66 H31         6.5740    4.6629   -0.5495 H         1 <0>         0.0739
     67 H32         7.1960    4.0502    1.7011 H         1 <0>         0.3756
     68 H33         3.0321    5.5806    0.5348 H         1 <0>         0.1797
     69 H34         4.1604    6.8921    0.1161 H         1 <0>         0.0315
     70 H35         4.3838    5.2695   -0.5808 H         1 <0>         0.0976
     71 H36         3.2531    6.0275    1.7354 H         1 <0>         0.1715
     72 H37         1.6010    5.9685    1.0757 H         1 <0>         0.0579
     73 H38         1.9200    5.3932    2.7297 H         1 <0>         0.0760
     74 H39         2.3777    4.5866   -0.7755 H         1 <0>         0.3802
     75 H40         1.0014    3.2129    3.3232 H         1 <0>         0.0689
     76 H41         0.3434    4.6685    2.5378 H         1 <0>         0.0730
     77 H42        -0.5063    3.1122    2.3825 H         1 <0>         0.0736
     78 H43        -0.3810    3.3119    0.0025 H         1 <0>         0.3886
     79 H44         0.6760    1.7472   -0.9527 H         1 <0>         0.0774
     80 H45         2.4516    1.8297   -0.8590 H         1 <0>         0.0798
     81 H46         1.6125    0.2978   -0.5160 H         1 <0>         0.0638
@<TRIPOS>BOND
     1    1    2 1
     2    1   36 1
     3    1   37 1
     4    1   38 1
     5    2    3 1
     6    2   39 1
     7    2   40 1
     8    3    4 1
     9    4    9 1
    10    4    5 1
    11    4   35 1
    12    5    6 1
    13    5   33 1
    14    5   34 1
    15    6    7 1
    16    6   31 1
    17    6   32 1
    18    7    8 1
    19    7   13 1
    20    7   14 1
    21    8    9 1
    22    8   10 1
    23    8   11 1
    24   10   41 1
    25   10   42 1
    26   10   43 1
    27   11   12 1
    28   11   44 1
    29   11   45 1
    30   12   46 1
    31   13   47 1
    32   13   48 1
    33   13   49 1
    34   14   15 1
    35   15   20 1
    36   15   16 1
    37   15   30 1
    38   16   17 1
    39   16   28 1
    40   16   29 1
    41   17   18 1
    42   17   26 1
    43   17   27 1
    44   18   19 1
    45   18   24 1
    46   18   25 1
    47   19   20 1
    48   19   21 1
    49   19   22 1
    50   21   50 1
    51   21   51 1
    52   21   52 1
    53   22   23 1
    54   22   53 1
    55   22   54 1
    56   23   55 1
    57   24   56 1
    58   24   57 1
    59   24   58 1
    60   25   59 1
    61   26   60 1
    62   26   61 1
    63   26   62 1
    64   27   63 1
    65   28   64 1
    66   28   65 1
    67   28   66 1
    68   29   67 1
    69   30   68 1
    70   30   69 1
    71   30   70 1
    72   31   71 1
    73   31   72 1
    74   31   73 1
    75   32   74 1
    76   33   75 1
    77   33   76 1
    78   33   77 1
    79   34   78 1
    80   35   79 1
    81   35   80 1
    82   35   81 1
@<TRIPOS>MOLECULE
ZINC20922598
   57    60     0     0     0
SMALL
USER_CHARGES
3-[(4-amino-5-hydrazino-1,2,4-triazol-3-yl)sulfanyl]-N-[4-(3,4-dihydro-1H-isoquinolin-2-ylsulfonyl)phenyl]propanamide
@<TRIPOS>ATOM
      1 C1        -11.1849    9.6755   -0.4237 C.ar      1 <0>        -0.1175
      2 C2        -11.1350    9.4540   -1.7876 C.ar      1 <0>        -0.1200
      3 C3        -11.7956    8.3707   -2.3292 C.ar      1 <0>        -0.1141
      4 C4        -12.5093    7.5013   -1.5152 C.ar      1 <0>        -0.0947
      5 C5        -12.5538    7.7163   -0.1561 C.ar      1 <0>        -0.0644
      6 C6        -11.8909    8.8109    0.3862 C.ar      1 <0>        -0.1201
      7 C7        -13.2924    6.8081    0.7914 C.3       1 <0>        -0.1031
      8 C8        -14.3383    5.9745    0.0428 C.3       1 <0>         0.1147
      9 N1        -13.6855    5.4043   -1.1474 N.pl3     1 <0>        -0.9973
     10 C9        -13.2164    6.3427   -2.1726 C.3       1 <0>         0.1632
     11 S1        -13.4947    3.7689   -1.3248 S.o2      1 <0>         2.6948
     12 O1        -13.3835    3.5219   -2.7197 O.2       1 <0>        -0.9529
     13 O2        -14.4909    3.1541   -0.5193 O.2       1 <0>        -0.9505
     14 C10       -11.9395    3.3456   -0.6129 C.ar      1 <0>        -0.6939
     15 C11       -11.8633    3.0029    0.7246 C.ar      1 <0>         0.0006
     16 C12       -10.6458    2.6705    1.2856 C.ar      1 <0>        -0.1450
     17 C13        -9.4973    2.6809    0.5049 C.ar      1 <0>         0.2082
     18 C14        -9.5763    3.0311   -0.8366 C.ar      1 <0>        -0.1662
     19 C15       -10.7976    3.3573   -1.3928 C.ar      1 <0>         0.0013
     20 N2         -8.2623    2.3446    1.0703 N.am      1 <0>        -0.6894
     21 C16        -8.1945    1.3980    2.0272 C.2       1 <0>         0.5232
     22 O3         -9.2117    0.8973    2.4580 O.2       1 <0>        -0.5062
     23 C17        -6.8548    0.9617    2.5619 C.3       1 <0>        -0.1256
     24 C18        -7.0581   -0.1148    3.6300 C.3       1 <0>        -0.0874
     25 S2         -5.4455   -0.6400    4.2737 S.3       1 <0>        -0.0104
     26 C19        -5.8448   -1.8642    5.4764 C.2       1 <0>         0.1851
     27 N3         -7.0508   -2.2675    5.7946 N.2       1 <0>        -0.2939
     28 N4         -6.9311   -3.2478    6.7883 N.2       1 <0>        -0.3362
     29 C20        -5.6563   -3.4155    7.0405 C.2       1 <0>         0.4839
     30 N5         -4.9514   -2.5609    6.2410 N.pl3     1 <0>        -0.2691
     31 N6         -3.5922   -2.4299    6.2076 N.3       1 <0>        -0.7784
     32 N7         -5.1164   -4.3036    7.9619 N.pl3     1 <0>        -0.5794
     33 N8         -5.9393   -5.1056    8.7006 N.3       1 <0>        -0.5544
     34 H1        -10.6728   10.5236    0.0062 H         1 <0>         0.1219
     35 H2        -10.5808   10.1259   -2.4262 H         1 <0>         0.1236
     36 H3        -11.7574    8.1976   -3.3945 H         1 <0>         0.1252
     37 H4        -11.9286    8.9856    1.4513 H         1 <0>         0.1213
     38 H5        -12.5785    6.1272    1.2779 H         1 <0>         0.0816
     39 H6        -13.8021    7.4125    1.5562 H         1 <0>         0.0899
     40 H7        -14.7061    5.1722    0.6994 H         1 <0>         0.1033
     41 H8        -15.1783    6.6201   -0.2532 H         1 <0>         0.0856
     42 H9        -14.0773    6.7164   -2.7464 H         1 <0>         0.0900
     43 H10       -12.5210    5.8253   -2.8499 H         1 <0>         0.0993
     44 H11       -12.7568    2.9954    1.3313 H         1 <0>         0.1424
     45 H12       -10.5869    2.4033    2.3303 H         1 <0>         0.1487
     46 H13        -8.6842    3.0443   -1.4452 H         1 <0>         0.1366
     47 H14       -10.8604    3.6257   -2.4370 H         1 <0>         0.1422
     48 H15        -7.3467    2.8529    0.7338 H         1 <0>         0.4414
     49 H16        -6.2476    0.5534    1.7406 H         1 <0>         0.1133
     50 H17        -6.3381    1.8255    3.0055 H         1 <0>         0.1129
     51 H18        -7.6654    0.2936    4.4512 H         1 <0>         0.1086
     52 H19        -7.5748   -0.9786    3.1863 H         1 <0>         0.1089
     53 H20        -2.9640   -3.0438    6.8698 H         1 <0>         0.4359
     54 H21        -3.1258   -1.7105    5.5185 H         1 <0>         0.4459
     55 H22        -4.0262   -4.3611    8.0968 H         1 <0>         0.4243
     56 H23        -5.3340   -5.7350    9.3695 H         1 <0>         0.3581
     57 H24        -6.6186   -4.4813    9.2997 H         1 <0>         0.3341
@<TRIPOS>BOND
     1    1    6 ar
     2    1    2 ar
     3    1   34 1
     4    2    3 ar
     5    2   35 1
     6    3    4 ar
     7    3   36 1
     8    4   10 1
     9    4    5 ar
    10    5    6 ar
    11    5    7 1
    12    6   37 1
    13    7    8 1
    14    7   38 1
    15    7   39 1
    16    8    9 1
    17    8   40 1
    18    8   41 1
    19    9   10 1
    20    9   11 1
    21   10   42 1
    22   10   43 1
    23   11   12 2
    24   11   13 2
    25   11   14 1
    26   14   19 ar
    27   14   15 ar
    28   15   16 ar
    29   15   44 1
    30   16   17 ar
    31   16   45 1
    32   17   18 ar
    33   17   20 1
    34   18   19 ar
    35   18   46 1
    36   19   47 1
    37   20   21 am
    38   20   48 1
    39   21   22 2
    40   21   23 1
    41   23   24 1
    42   23   49 1
    43   23   50 1
    44   24   25 1
    45   24   51 1
    46   24   52 1
    47   25   26 1
    48   26   30 1
    49   26   27 2
    50   27   28 1
    51   28   29 2
    52   29   30 1
    53   29   32 1
    54   30   31 1
    55   31   53 1
    56   31   54 1
    57   32   33 1
    58   32   55 1
    59   33   56 1
    60   33   57 1
@<TRIPOS>MOLECULE
ZINC35645384
   62    65     0     0     0
SMALL
USER_CHARGES

@<TRIPOS>ATOM
      1 C1         -0.0184    1.5028    0.0103 C.3       1 <0>        -0.1296
      2 C2          0.0021   -0.0041    0.0020 C.2       1 <0>         0.0408
      3 C3          0.0061   -0.6954   -1.1674 C.2       1 <0>        -0.2660
      4 C4          0.0259   -2.1051   -1.1488 C.2       1 <0>         0.5121
      5 O1          0.0297   -2.7124   -2.2045 O.2       1 <0>        -0.4636
      6 O2          0.0411   -2.7950    0.0025 O.3       1 <0>        -0.2712
      7 C5          0.0380   -2.1693    1.1991 C.ar      1 <0>         0.1862
      8 C6          0.0243   -0.7629    1.2543 C.ar      1 <0>        -0.1862
      9 C7          0.0261   -0.1105    2.4922 C.ar      1 <0>        -0.0152
     10 C8          0.0465   -0.8421    3.6444 C.ar      1 <0>        -0.2016
     11 C9          0.0655   -2.2344    3.5961 C.ar      1 <0>         0.1855
     12 C10         0.0533   -2.8969    2.3791 C.ar      1 <0>        -0.1713
     13 O3          0.0862   -2.9478    4.7507 O.3       1 <0>        -0.3199
     14 C11         0.0871   -2.2057    5.9719 C.3       1 <0>         0.2247
     15 H1         -0.7642   -1.5251    5.9843 H         1 <0>         0.1185
     16 C12        -0.0138   -3.1709    7.1560 C.3       1 <0>         0.0907
     17 H2         -0.9156   -3.7752    7.0576 H         1 <0>         0.0986
     18 C13         1.2158   -4.0843    7.1662 C.3       1 <0>         0.1215
     19 H3          1.2294   -4.6877    6.2585 H         1 <0>         0.0915
     20 C14         2.4794   -3.2206    7.2263 C.3       1 <0>         0.0510
     21 H4          3.3606   -3.8603    7.1782 H         1 <0>         0.0716
     22 C15         2.4839   -2.2534    6.0395 C.3       1 <0>         0.0585
     23 H5          2.5146   -2.8201    5.1089 H         1 <0>         0.0811
     24 O4          1.2989   -1.4551    6.0725 O.3       1 <0>        -0.3483
     25 C16         3.7130   -1.3463    6.1253 C.3       1 <0>         0.0825
     26 O5          3.7801   -0.5236    4.9588 O.3       1 <0>        -0.5606
     27 O6          2.4935   -2.4794    8.4479 O.3       1 <0>        -0.5212
     28 O7          1.1655   -4.9410    8.3089 O.3       1 <0>        -0.5321
     29 O8         -0.0679   -2.4273    8.3750 O.3       1 <0>        -0.2935
     30 C17        -1.3923   -2.0876    8.7903 C.3       1 <0>         0.2162
     31 H6         -1.9300   -1.6357    7.9567 H         1 <0>         0.0490
     32 C18        -1.3238   -1.0935    9.9526 C.3       1 <0>         0.0704
     33 H7         -0.8416   -0.1749    9.6183 H         1 <0>         0.0659
     34 C19        -2.7448   -0.7807   10.4312 C.3       1 <0>         0.1173
     35 H8         -3.3026   -0.2996    9.6278 H         1 <0>         0.0794
     36 C20        -3.4386   -2.0884   10.8249 C.3       1 <0>         0.0866
     37 H9         -4.4688   -1.8814   11.1144 H         1 <0>         0.0696
     38 C21        -3.4255   -3.0441    9.6289 C.3       1 <0>         0.0652
     39 H10        -3.9899   -2.6048    8.8064 H         1 <0>         0.0651
     40 O9         -2.0763   -3.2683    9.2146 O.3       1 <0>        -0.3731
     41 C22        -4.0635   -4.3749   10.0322 C.3       1 <0>        -0.1496
     42 O10        -2.7449   -2.6854   11.9224 O.3       1 <0>        -0.5158
     43 O11        -2.6873    0.0911   11.5620 O.3       1 <0>        -0.5353
     44 O12        -0.5720   -1.6643   11.0254 O.3       1 <0>        -0.5129
     45 H11         1.0042    1.8801    0.0026 H         1 <0>         0.0923
     46 H12        -0.5455    1.8639   -0.8728 H         1 <0>         0.0851
     47 H13        -0.5286    1.8543    0.9071 H         1 <0>         0.0809
     48 H14        -0.0061   -0.1665   -2.1090 H         1 <0>         0.1633
     49 H15         0.0118    0.9686    2.5359 H         1 <0>         0.1438
     50 H16         0.0483   -0.3384    4.5997 H         1 <0>         0.1461
     51 H17         0.0678   -3.9764    2.3498 H         1 <0>         0.1522
     52 H18         3.6379   -0.7154    7.0110 H         1 <0>         0.0603
     53 H19         4.6125   -1.9584    6.1904 H         1 <0>         0.0642
     54 H20         4.5366    0.0786    4.9452 H         1 <0>         0.3839
     55 H21         3.2675   -1.9093    8.5532 H         1 <0>         0.3693
     56 H22         1.9152   -5.5477    8.3789 H         1 <0>         0.3799
     57 H23        -5.0923   -4.2034   10.3488 H         1 <0>         0.0769
     58 H24        -4.0541   -5.0552    9.1806 H         1 <0>         0.0720
     59 H25        -3.4987   -4.8143   10.8544 H         1 <0>         0.0720
     60 H26        -3.1305   -3.5191   12.2247 H         1 <0>         0.3675
     61 H27        -2.2540    0.9372   11.3846 H         1 <0>         0.3781
     62 H28         0.3382   -1.8914   10.7907 H         1 <0>         0.3799
@<TRIPOS>BOND
     1    1    2 1
     2    1   45 1
     3    1   46 1
     4    1   47 1
     5    2    8 1
     6    2    3 2
     7    3    4 1
     8    3   48 1
     9    4    5 2
    10    4    6 1
    11    6    7 1
    12    7   12 ar
    13    7    8 ar
    14    8    9 ar
    15    9   10 ar
    16    9   49 1
    17   10   11 ar
    18   10   50 1
    19   11   12 ar
    20   11   13 1
    21   12   51 1
    22   13   14 1
    23   14   15 1
    24   14   24 1
    25   14   16 1
    26   16   17 1
    27   16   18 1
    28   16   29 1
    29   18   19 1
    30   18   20 1
    31   18   28 1
    32   20   21 1
    33   20   22 1
    34   20   27 1
    35   22   23 1
    36   22   24 1
    37   22   25 1
    38   25   26 1
    39   25   52 1
    40   25   53 1
    41   26   54 1
    42   27   55 1
    43   28   56 1
    44   29   30 1
    45   30   31 1
    46   30   40 1
    47   30   32 1
    48   32   33 1
    49   32   34 1
    50   32   44 1
    51   34   35 1
    52   34   36 1
    53   34   43 1
    54   36   37 1
    55   36   38 1
    56   36   42 1
    57   38   39 1
    58   38   40 1
    59   38   41 1
    60   41   57 1
    61   41   58 1
    62   41   59 1
    63   42   60 1
    64   43   61 1
    65   44   62 1
@<TRIPOS>MOLECULE
ZINC39560136
   55    58     0     0     0
SMALL
USER_CHARGES

@<TRIPOS>ATOM
      1 C1         -7.5631    1.3078   -0.0342 C.3       1 <0>         0.0221
      2 O1         -7.5382   -0.1210   -0.0319 O.3       1 <0>        -0.3034
      3 C2         -6.3182   -0.7162   -0.0133 C.ar      1 <0>         0.2089
      4 C3         -5.1698    0.0679    0.0082 C.ar      1 <0>        -0.2689
      5 C4         -3.9223   -0.5278    0.0273 C.ar      1 <0>         0.2417
      6 C5         -3.8251   -1.9250    0.0254 C.ar      1 <0>        -0.2927
      7 C6         -2.5166   -2.6007    0.0459 C.2       1 <0>         0.4254
      8 O2         -1.4750   -1.9649    0.0652 O.2       1 <0>        -0.4589
      9 C7         -2.5142   -4.0155    0.0428 C.2       1 <0>        -0.3082
     10 C8         -3.6965   -4.6882    0.0213 C.2       1 <0>         0.2119
     11 O3         -4.8832   -4.0609    0.0022 O.3       1 <0>        -0.2036
     12 C9         -4.9873   -2.7149    0.0041 C.ar      1 <0>         0.2047
     13 C10        -6.2293   -2.0995   -0.0101 C.ar      1 <0>        -0.1894
     14 C11        -3.6736   -6.1626    0.0184 C.ar      1 <0>        -0.0692
     15 C12        -2.4588   -6.8463   -0.0911 C.ar      1 <0>        -0.0956
     16 C13        -2.4416   -8.2240   -0.0935 C.ar      1 <0>        -0.0887
     17 C14        -3.6235   -8.9387    0.0118 C.ar      1 <0>        -0.1434
     18 C15        -4.8346   -8.2757    0.1210 C.ar      1 <0>         0.0975
     19 C16        -4.8677   -6.8851    0.1311 C.ar      1 <0>         0.1201
     20 O4         -6.0528   -6.2315    0.2437 O.3       1 <0>        -0.4702
     21 O5         -5.9908   -8.9842    0.2240 O.3       1 <0>        -0.3187
     22 C17        -5.8818  -10.4090    0.2128 C.3       1 <0>         0.2109
     23 H1         -5.1936  -10.7271    0.9960 H         1 <0>         0.1159
     24 C18        -7.2596  -11.0285    0.4615 C.3       1 <0>         0.0685
     25 H2         -7.6558  -10.6666    1.4102 H         1 <0>         0.0776
     26 C19        -8.2044  -10.6257   -0.6749 C.3       1 <0>         0.0822
     27 H3         -8.3329   -9.5433   -0.6759 H         1 <0>         0.0858
     28 C20        -7.5991  -11.0712   -2.0096 C.3       1 <0>         0.0929
     29 H4         -8.2381  -10.7398   -2.8281 H         1 <0>         0.0723
     30 C21        -6.2082  -10.4501   -2.1628 C.3       1 <0>         0.1054
     31 H5         -6.2956   -9.3638   -2.1854 H         1 <0>         0.0823
     32 O6         -5.3895  -10.8394   -1.0578 O.3       1 <0>        -0.3500
     33 C22        -5.5722  -10.9380   -3.4660 C.3       1 <0>         0.0889
     34 O7         -4.3252  -10.2697   -3.6669 O.3       1 <0>        -0.5672
     35 O8         -7.4924  -12.4960   -2.0338 O.3       1 <0>        -0.5325
     36 O9         -9.4726  -11.2574   -0.4887 O.3       1 <0>        -0.5520
     37 O10        -7.1423  -12.4520    0.5048 O.3       1 <0>        -0.5143
     38 O11        -2.8004    0.2355    0.0473 O.3       1 <0>        -0.4742
     39 H6         -8.5968    1.6531   -0.0497 H         1 <0>         0.1084
     40 H7         -7.0687    1.6812    0.8626 H         1 <0>         0.0622
     41 H8         -7.0427    1.6788   -0.9172 H         1 <0>         0.0629
     42 H9         -5.2526    1.1447    0.0096 H         1 <0>         0.1483
     43 H10        -1.5803   -4.5577    0.0570 H         1 <0>         0.1632
     44 H11        -7.1282   -2.6981   -0.0227 H         1 <0>         0.1552
     45 H12        -1.5342   -6.2945   -0.1742 H         1 <0>         0.1424
     46 H13        -1.5018   -8.7494   -0.1782 H         1 <0>         0.1409
     47 H14        -3.6005  -10.0184    0.0084 H         1 <0>         0.1451
     48 H15        -6.4793   -6.0418   -0.6031 H         1 <0>         0.3909
     49 H16        -5.4030  -12.0132   -3.4075 H         1 <0>         0.0687
     50 H17        -6.2396  -10.7201   -4.2998 H         1 <0>         0.0620
     51 H18        -3.8651  -10.5306   -4.4764 H         1 <0>         0.3835
     52 H19        -8.3378  -12.9554   -1.9369 H         1 <0>         0.3853
     53 H20        -9.9101  -11.0241    0.3415 H         1 <0>         0.3864
     54 H21        -6.5541  -12.7772    1.2000 H         1 <0>         0.3772
     55 H22        -2.4897    0.4548    0.9364 H         1 <0>         0.4034
@<TRIPOS>BOND
     1    1    2 1
     2    1   39 1
     3    1   40 1
     4    1   41 1
     5    2    3 1
     6    3   13 ar
     7    3    4 ar
     8    4    5 ar
     9    4   42 1
    10    5    6 ar
    11    5   38 1
    12    6   12 ar
    13    6    7 1
    14    7    8 2
    15    7    9 1
    16    9   10 2
    17    9   43 1
    18   10   11 1
    19   10   14 1
    20   11   12 1
    21   12   13 ar
    22   13   44 1
    23   14   19 ar
    24   14   15 ar
    25   15   16 ar
    26   15   45 1
    27   16   17 ar
    28   16   46 1
    29   17   18 ar
    30   17   47 1
    31   18   19 ar
    32   18   21 1
    33   19   20 1
    34   20   48 1
    35   21   22 1
    36   22   23 1
    37   22   32 1
    38   22   24 1
    39   24   25 1
    40   24   26 1
    41   24   37 1
    42   26   27 1
    43   26   28 1
    44   26   36 1
    45   28   29 1
    46   28   30 1
    47   28   35 1
    48   30   31 1
    49   30   32 1
    50   30   33 1
    51   33   34 1
    52   33   49 1
    53   33   50 1
    54   34   51 1
    55   35   52 1
    56   36   53 1
    57   37   54 1
    58   38   55 1
@<TRIPOS>MOLECULE
ZINC46867972
   54    55     0     0     0
SMALL
USER_CHARGES

@<TRIPOS>ATOM
      1 C1         -0.0474    1.5022    0.0104 C.3       1 <0>        -0.1230
      2 C2         -0.0118   -0.0043    0.0020 C.ar      1 <0>        -0.0343
      3 C3          0.0057   -0.6882   -1.2000 C.ar      1 <0>        -0.1581
      4 C4          0.0379   -2.0704   -1.2122 C.ar      1 <0>        -0.0662
      5 C5          0.0531   -2.7729   -0.0230 C.ar      1 <0>        -0.1929
      6 C6          0.0360   -2.0893    1.1859 C.ar      1 <0>         0.1998
      7 C7          0.0089   -0.7002    1.1945 C.ar      1 <0>        -0.1893
      8 N1          0.0513   -2.7965    2.3902 N.pl3     1 <0>        -0.6449
      9 C8          0.1521   -2.0940    3.6788 C.3       1 <0>         0.0994
     10 C9         -0.9581   -2.6088    4.6009 C.3       1 <0>        -0.0219
     11 N2         -0.8721   -4.0713    4.6997 N.4       1 <0>        -0.3822
     12 C10        -1.1349   -4.6774    3.3883 C.3       1 <0>        -0.0272
     13 C11        -0.0392   -4.2648    2.4064 C.3       1 <0>         0.1001
     14 C12        -1.8654   -4.5541    5.6683 C.3       1 <0>        -0.0094
     15 C13        -1.6943   -6.0616    5.8657 C.3       1 <0>        -0.1457
     16 C14        -2.7288   -6.5645    6.8746 C.3       1 <0>        -0.1319
     17 C15        -2.5577   -8.0720    7.0720 C.3       1 <0>         0.1362
     18 N3         -3.5483   -8.5535    8.0380 N.am      1 <0>        -0.7455
     19 C16        -3.5865   -9.8592    8.3700 C.2       1 <0>         0.7172
     20 O1         -2.7988  -10.6375    7.8679 O.2       1 <0>        -0.5651
     21 N4         -4.4978  -10.3022    9.2587 N.am      1 <0>        -0.5360
     22 N5         -5.4055   -9.4054    9.8373 N.am      1 <0>        -0.5411
     23 C17        -6.3168   -9.8484   10.7259 C.2       1 <0>         0.7189
     24 O2         -7.1045   -9.0702   11.2281 O.2       1 <0>        -0.5681
     25 N6         -6.3550  -11.1541   11.0580 N.am      1 <0>        -0.8575
     26 H1          0.9714    1.8897    0.0087 H         1 <0>         0.0772
     27 H2         -0.5730    1.8582   -0.8758 H         1 <0>         0.0732
     28 H3         -0.5664    1.8485    0.9042 H         1 <0>         0.0674
     29 H4         -0.0061   -0.1414   -2.1312 H         1 <0>         0.1262
     30 H5          0.0508   -2.6014   -2.1525 H         1 <0>         0.1286
     31 H6          0.0779   -3.8526   -0.0332 H         1 <0>         0.1222
     32 H7         -0.0004   -0.1655    2.1328 H         1 <0>         0.1221
     33 H8          1.1243   -2.2932    4.1295 H         1 <0>         0.0878
     34 H9          0.0304   -1.0222    3.5221 H         1 <0>         0.1268
     35 H10        -0.8403   -2.1700    5.5917 H         1 <0>         0.1410
     36 H11        -1.9290   -2.3286    4.1923 H         1 <0>         0.1327
     37 H12        -1.1474   -5.7630    3.4857 H         1 <0>         0.1428
     38 H13        -2.1005   -4.3346    3.0164 H         1 <0>         0.1330
     39 H14        -0.2872   -4.6275    1.4089 H         1 <0>         0.1268
     40 H15         0.9134   -4.6869    2.7265 H         1 <0>         0.0871
     41 H16        -1.7217   -4.0442    6.6209 H         1 <0>         0.1338
     42 H17        -2.8681   -4.3483    5.2936 H         1 <0>         0.1309
     43 H18        -1.8380   -6.5715    4.9131 H         1 <0>         0.0924
     44 H19        -0.6916   -6.2675    6.2404 H         1 <0>         0.0935
     45 H20        -2.5851   -6.0546    7.8272 H         1 <0>         0.0841
     46 H21        -3.7315   -6.3587    6.4999 H         1 <0>         0.0835
     47 H22        -2.7015   -8.5819    6.1194 H         1 <0>         0.0748
     48 H23        -1.5550   -8.2779    7.4467 H         1 <0>         0.0752
     49 H24        -4.1768   -7.9327    8.4386 H         1 <0>         0.3958
     50 H25        -4.5253  -11.2419    9.4976 H         1 <0>         0.4356
     51 H26        -5.3780   -8.4657    9.5983 H         1 <0>         0.4298
     52 H27        -5.7266  -11.7750   10.6574 H         1 <0>         0.3959
     53 H28        -7.0109  -11.4729   11.6975 H         1 <0>         0.4257
     54 H29         0.0517   -4.3324    5.0105 H         1 <0>         0.4232
@<TRIPOS>BOND
     1    1    2 1
     2    1   26 1
     3    1   27 1
     4    1   28 1
     5    2    7 ar
     6    2    3 ar
     7    3    4 ar
     8    3   29 1
     9    4    5 ar
    10    4   30 1
    11    5    6 ar
    12    5   31 1
    13    6    7 ar
    14    6    8 1
    15    7   32 1
    16    8   13 1
    17    8    9 1
    18    9   10 1
    19    9   33 1
    20    9   34 1
    21   10   11 1
    22   10   35 1
    23   10   36 1
    24   11   12 1
    25   11   14 1
    26   11   54 1
    27   12   13 1
    28   12   37 1
    29   12   38 1
    30   13   39 1
    31   13   40 1
    32   14   15 1
    33   14   41 1
    34   14   42 1
    35   15   16 1
    36   15   43 1
    37   15   44 1
    38   16   17 1
    39   16   45 1
    40   16   46 1
    41   17   18 1
    42   17   47 1
    43   17   48 1
    44   18   19 am
    45   18   49 1
    46   19   20 2
    47   19   21 am
    48   21   22 1
    49   21   50 1
    50   22   23 am
    51   22   51 1
    52   23   24 2
    53   23   25 am
    54   25   52 1
    55   25   53 1
@<TRIPOS>MOLECULE
ZINC09253210
   36    38     0     0     0
SMALL
USER_CHARGES
N'-[2-[[4-amino-5-(2-furyl)-1,2,4-triazol-3-yl]sulfanyl]acetyl]thiophene-2-carbohydrazide
@<TRIPOS>ATOM
      1 C1        -13.8579    6.5042   -0.0574 C.2       1 <0>        -0.2099
      2 C2        -12.4579    6.5946   -0.1793 C.2       1 <0>        -0.1236
      3 C3        -11.9598    5.3556    0.0920 C.2       1 <0>         0.0250
      4 O1        -12.9956    4.5414    0.3758 O.3       1 <0>        -0.1837
      5 C4        -14.1439    5.2326    0.2864 C.2       1 <0>        -0.0088
      6 C5        -10.5388    4.9747    0.0828 C.2       1 <0>         0.2298
      7 N1         -9.5095    5.7933    0.0813 N.2       1 <0>        -0.2343
      8 N2         -8.4145    5.1208    0.0725 N.2       1 <0>        -0.2819
      9 C6         -8.6744    3.8327    0.0677 C.2       1 <0>         0.1744
     10 N3        -10.0341    3.6929    0.0686 N.pl3     1 <0>        -0.3010
     11 N4        -10.7441    2.5260    0.0602 N.3       1 <0>        -0.5786
     12 S1         -7.4901    2.5281    0.0548 S.3       1 <0>         0.1345
     13 C7         -5.9591    3.4935    0.0517 C.3       1 <0>        -0.1556
     14 C8         -4.7764    2.5596    0.0408 C.2       1 <0>         0.5384
     15 O2         -4.9514    1.3595    0.0356 O.2       1 <0>        -0.5198
     16 N5         -3.5242    3.0580    0.0367 N.am      1 <0>        -0.5102
     17 N6         -2.4247    2.1898    0.0265 N.am      1 <0>        -0.5172
     18 C9         -1.1725    2.6882    0.0225 C.2       1 <0>         0.6119
     19 O3         -0.9969    3.8925    0.0277 O.2       1 <0>        -0.5205
     20 C10        -0.0221    1.7798    0.0118 C.2       1 <0>        -0.2468
     21 C11         1.3304    2.0829    0.0005 C.2       1 <0>        -0.0549
     22 C12         2.2075    1.0272   -0.0135 C.2       1 <0>        -0.1807
     23 C13         1.7193   -0.2410   -0.0157 C.2       1 <0>        -0.1708
     24 S2          0.0021   -0.0041    0.0020 S.3       1 <0>         0.1512
     25 H1        -14.5683    7.3037   -0.2076 H         1 <0>         0.1621
     26 H2        -11.8892    7.4750   -0.4398 H         1 <0>         0.1647
     27 H3        -15.1329    4.8352    0.4608 H         1 <0>         0.2154
     28 H4        -10.9310    2.2097    1.0000 H         1 <0>         0.3705
     29 H5        -11.6002    2.6274   -0.4641 H         1 <0>         0.3816
     30 H6         -5.9211    4.1174    0.9447 H         1 <0>         0.1370
     31 H7         -5.9305    4.1265   -0.8352 H         1 <0>         0.1377
     32 H8         -3.3842    4.0178    0.0409 H         1 <0>         0.4389
     33 H9         -2.5647    1.2300    0.0224 H         1 <0>         0.4335
     34 H10         1.6788    3.1051    0.0024 H         1 <0>         0.1514
     35 H11         3.2732    1.2023   -0.0224 H         1 <0>         0.1456
     36 H12         2.2682   -1.1711   -0.0262 H         1 <0>         0.1947
@<TRIPOS>BOND
     1    1    5 2
     2    1    2 1
     3    1   25 1
     4    2    3 2
     5    2   26 1
     6    3    4 1
     7    3    6 1
     8    4    5 1
     9    5   27 1
    10    6   10 1
    11    6    7 2
    12    7    8 1
    13    8    9 2
    14    9   10 1
    15    9   12 1
    16   10   11 1
    17   11   28 1
    18   11   29 1
    19   12   13 1
    20   13   14 1
    21   13   30 1
    22   13   31 1
    23   14   15 2
    24   14   16 am
    25   16   17 1
    26   16   32 1
    27   17   18 am
    28   17   33 1
    29   18   19 2
    30   18   20 1
    31   20   24 1
    32   20   21 2
    33   21   22 1
    34   21   34 1
    35   22   23 2
    36   22   35 1
    37   23   24 1
    38   23   36 1
@<TRIPOS>MOLECULE
ZINC29977437
   53    54     0     0     0
SMALL
USER_CHARGES
methyl (3R)-3-(4-chlorophenyl)-3-[[(3S)-3-(o-tolyl)-3-ureido-propanoyl]amino]propanoate
@<TRIPOS>ATOM
      1 C1          0.1053   -0.3941   -2.3947 C.3       1 <0>        -0.1165
      2 C2          0.1936    0.1674   -0.9990 C.ar      1 <0>        -0.0707
      3 C3         -0.0728    1.5053   -0.7740 C.ar      1 <0>        -0.1296
      4 C4          0.0077    2.0201    0.5061 C.ar      1 <0>        -0.1125
      5 C5          0.3561    1.1976    1.5614 C.ar      1 <0>        -0.1330
      6 C6          0.6220   -0.1399    1.3365 C.ar      1 <0>        -0.0702
      7 C7          0.5405   -0.6551    0.0561 C.ar      1 <0>        -0.0988
      8 C8          0.8304   -2.1135   -0.1891 C.3       1 <0>         0.2367
      9 H1          0.0835   -2.5307   -0.8806 H         1 <0>         0.1005
     10 C9          0.8261   -2.8654    1.1434 C.3       1 <0>        -0.1643
     11 C10         0.9937   -4.3412    0.8880 C.2       1 <0>         0.5329
     12 O1          1.1056   -4.7511   -0.2480 O.2       1 <0>        -0.5364
     13 N1          1.0193   -5.2054    1.9219 N.am      1 <0>        -0.7362
     14 C11         1.2974   -6.6239    1.6841 C.3       1 <0>         0.2028
     15 H2          0.8246   -6.8990    0.7298 H         1 <0>         0.1104
     16 C12         0.7316   -7.4548    2.8376 C.3       1 <0>        -0.1203
     17 C13        -0.7689   -7.3181    2.8664 C.2       1 <0>         0.4565
     18 O2         -1.3370   -6.7095    1.9908 O.2       1 <0>        -0.4917
     19 O3         -1.4743   -7.8725    3.8648 O.3       1 <0>        -0.3603
     20 C14        -2.9156   -7.7008    3.8282 C.3       1 <0>         0.0325
     21 C15         2.7867   -6.8359    1.5956 C.ar      1 <0>        -0.0938
     22 C16         3.6336   -6.1542    2.4495 C.ar      1 <0>        -0.0871
     23 C17         4.9993   -6.3525    2.3726 C.ar      1 <0>        -0.1098
     24 C18         5.5195   -7.2249    1.4332 C.ar      1 <0>        -0.0305
     25 C19         4.6719   -7.9026    0.5751 C.ar      1 <0>        -0.1093
     26 C20         3.3060   -7.7077    0.6567 C.ar      1 <0>        -0.0883
     27 Cl1         7.2353   -7.4687    1.3308 Cl        1 <0>        -0.0688
     28 N2          2.1442   -2.2504   -0.8228 N.am      1 <0>        -0.7406
     29 C21         3.2356   -1.7253   -0.2316 C.2       1 <0>         0.7090
     30 O4          3.1449   -1.2146    0.8681 O.2       1 <0>        -0.5993
     31 N3          4.4275   -1.7661   -0.8594 N.am      1 <0>        -0.8944
     32 H3         -0.1817    0.4051   -3.0939 H         1 <0>         0.0630
     33 H4         -0.6501   -1.1933   -2.4213 H         1 <0>         0.0695
     34 H5          1.0832   -0.8039   -2.6876 H         1 <0>         0.0689
     35 H6         -0.3395    2.1490   -1.5992 H         1 <0>         0.1185
     36 H7         -0.2004    3.0652    0.6819 H         1 <0>         0.1184
     37 H8          0.4191    1.5999    2.5617 H         1 <0>         0.1185
     38 H9          0.8931   -0.7827    2.1610 H         1 <0>         0.1233
     39 H10         1.6552   -2.5053    1.7703 H         1 <0>         0.1207
     40 H11        -0.1284   -2.6889    1.6610 H         1 <0>         0.0985
     41 H12         0.8314   -4.8456    2.9443 H         1 <0>         0.4164
     42 H13         1.0008   -8.5117    2.6947 H         1 <0>         0.1256
     43 H14         1.1509   -7.0950    3.7888 H         1 <0>         0.1154
     44 H15        -3.3666   -8.2007    4.6981 H         1 <0>         0.1044
     45 H16        -3.3142   -8.1435    2.9034 H         1 <0>         0.0648
     46 H17        -3.1579   -6.6282    3.8553 H         1 <0>         0.0650
     47 H18         3.2277   -5.4700    3.1799 H         1 <0>         0.1288
     48 H19         5.6605   -5.8232    3.0427 H         1 <0>         0.1330
     49 H20         5.0774   -8.5834   -0.1587 H         1 <0>         0.1347
     50 H21         2.6442   -8.2364   -0.0133 H         1 <0>         0.1329
     51 H22         2.2399   -2.7818   -1.7812 H         1 <0>         0.4183
     52 H23         5.3183   -1.3375   -0.3768 H         1 <0>         0.4322
     53 H24         4.5095   -2.2280   -1.8544 H         1 <0>         0.4101
@<TRIPOS>BOND
     1    1    2 1
     2    1   32 1
     3    1   33 1
     4    1   34 1
     5    2    7 ar
     6    2    3 ar
     7    3    4 ar
     8    3   35 1
     9    4    5 ar
    10    4   36 1
    11    5    6 ar
    12    5   37 1
    13    6    7 ar
    14    6   38 1
    15    7    8 1
    16    8    9 1
    17    8   10 1
    18    8   28 1
    19   10   11 1
    20   10   39 1
    21   10   40 1
    22   11   12 2
    23   11   13 am
    24   13   14 1
    25   13   41 1
    26   14   15 1
    27   14   16 1
    28   14   21 1
    29   16   17 1
    30   16   42 1
    31   16   43 1
    32   17   18 2
    33   17   19 1
    34   19   20 1
    35   20   44 1
    36   20   45 1
    37   20   46 1
    38   21   26 ar
    39   21   22 ar
    40   22   23 ar
    41   22   47 1
    42   23   24 ar
    43   23   48 1
    44   24   25 ar
    45   24   27 1
    46   25   26 ar
    47   25   49 1
    48   26   50 1
    49   28   29 am
    50   28   51 1
    51   29   30 2
    52   29   31 am
    53   31   52 1
    54   31   53 1
@<TRIPOS>MOLECULE
ZINC48591652
   46    47     0     0     0
SMALL
USER_CHARGES

@<TRIPOS>ATOM
      1 C1         -1.2665    1.1827    0.1821 C.3       1 <0>        -0.1188
      2 C2         -0.5854   -0.1581    0.0848 C.ar      1 <0>        -0.1123
      3 C3         -0.5713   -0.8403   -1.1162 C.ar      1 <0>        -0.0723
      4 C4          0.0525   -2.0705   -1.2075 C.ar      1 <0>        -0.1564
      5 C5          0.6659   -2.6233   -0.0950 C.ar      1 <0>         0.1137
      6 C6          0.6553   -1.9447    1.1099 C.ar      1 <0>        -0.1520
      7 C7          0.0333   -0.7059    1.2014 C.ar      1 <0>         0.1620
      8 N1          0.0251   -0.0149    2.4158 N.am      1 <0>        -0.6389
      9 C8         -0.0564   -0.6940    3.5771 C.2       1 <0>         0.5079
     10 O1         -0.0401   -1.9077    3.5728 O.2       1 <0>        -0.4921
     11 C9         -0.1668    0.0468    4.8692 C.2       1 <0>         0.5165
     12 O2         -0.1831    1.2602    4.8735 O.2       1 <0>        -0.5085
     13 N2         -0.2483   -0.6324    6.0305 N.am      1 <0>        -0.6893
     14 C10        -0.3565    0.0943    7.2980 C.3       1 <0>         0.1161
     15 H1          0.2271    1.0131    7.2410 H         1 <0>         0.1194
     16 C11        -1.8233    0.4375    7.5654 C.3       1 <0>         0.0679
     17 O3         -2.5675   -0.7675    7.7557 O.3       1 <0>        -0.5532
     18 C12         0.1780   -0.7798    8.4343 C.3       1 <0>         0.1437
     19 H2          0.0975   -0.2392    9.3773 H         1 <0>         0.1343
     20 C13         1.6228   -1.1180    8.1709 C.ar      1 <0>        -0.0738
     21 C14         1.9458   -2.1264    7.2823 C.ar      1 <0>        -0.1099
     22 C15         3.2710   -2.4366    7.0407 C.ar      1 <0>        -0.0467
     23 C16         4.2733   -1.7379    7.6873 C.ar      1 <0>        -0.0462
     24 C17         3.9504   -0.7288    8.5752 C.ar      1 <0>        -0.0493
     25 C18         2.6252   -0.4158    8.8136 C.ar      1 <0>        -0.1048
     26 N3          5.6924   -2.0707    7.4294 N.pl3     1 <0>         0.0309
     27 O4          5.9748   -2.9535    6.6532 O.2       1 <0>        -0.1536
     28 O5          6.5690   -1.4597    7.9949 O.3       1 <0>        -0.1538
     29 O6         -0.5871   -1.9844    8.5089 O.3       1 <0>        -0.5166
     30 F1          1.2744   -3.8261   -0.1873 F         1 <0>        -0.1333
     31 H3         -0.5517    1.9712   -0.0532 H         1 <0>         0.0772
     32 H4         -2.0956    1.2212   -0.5244 H         1 <0>         0.0776
     33 H5         -1.6447    1.3254    1.1944 H         1 <0>         0.0662
     34 H6         -1.0486   -0.4120   -1.9852 H         1 <0>         0.1412
     35 H7          0.0613   -2.6019   -2.1477 H         1 <0>         0.1405
     36 H8          1.1334   -2.3752    1.9773 H         1 <0>         0.1523
     37 H9          0.0780    0.9536    2.4230 H         1 <0>         0.4262
     38 H10        -0.2352   -1.6023    6.0271 H         1 <0>         0.4099
     39 H11        -1.8947    1.0540    8.4615 H         1 <0>         0.0631
     40 H12        -2.2293    0.9848    6.7146 H         1 <0>         0.0554
     41 H13        -3.5080   -0.6256    7.9303 H         1 <0>         0.3811
     42 H14         1.1627   -2.6723    6.7771 H         1 <0>         0.1405
     43 H15         3.5233   -3.2250    6.3470 H         1 <0>         0.1572
     44 H16         4.7335   -0.1833    9.0807 H         1 <0>         0.1577
     45 H17         2.3730    0.3751    9.5044 H         1 <0>         0.1521
     46 H18        -0.5612   -2.5175    7.7025 H         1 <0>         0.3711
@<TRIPOS>BOND
     1    1    2 1
     2    1   31 1
     3    1   32 1
     4    1   33 1
     5    2    7 ar
     6    2    3 ar
     7    3    4 ar
     8    3   34 1
     9    4    5 ar
    10    4   35 1
    11    5    6 ar
    12    5   30 1
    13    6    7 ar
    14    6   36 1
    15    7    8 1
    16    8    9 am
    17    8   37 1
    18    9   10 2
    19    9   11 1
    20   11   12 2
    21   11   13 am
    22   13   14 1
    23   13   38 1
    24   14   15 1
    25   14   16 1
    26   14   18 1
    27   16   17 1
    28   16   39 1
    29   16   40 1
    30   17   41 1
    31   18   19 1
    32   18   20 1
    33   18   29 1
    34   20   25 ar
    35   20   21 ar
    36   21   22 ar
    37   21   42 1
    38   22   23 ar
    39   22   43 1
    40   23   24 ar
    41   23   26 1
    42   24   25 ar
    43   24   44 1
    44   25   45 1
    45   26   27 2
    46   26   28 1
    47   29   46 1
@<TRIPOS>MOLECULE
ZINC23649119
   53    54     0     0     0
SMALL
USER_CHARGES

@<TRIPOS>ATOM
      1 C1          0.0653    1.2478   -0.5860 C.ar      1 <0>        -0.1156
      2 C2          1.2525    1.9535   -0.5846 C.ar      1 <0>        -0.1349
      3 C3          2.3799    1.4124    0.0102 C.ar      1 <0>         0.0853
      4 C4          2.3195    0.1633    0.6047 C.ar      1 <0>        -0.1345
      5 C5          1.1342   -0.5456    0.6055 C.ar      1 <0>        -0.0910
      6 C6          0.0025   -0.0047    0.0100 C.ar      1 <0>         0.1325
      7 N1         -1.2004   -0.7216    0.0101 N.am      1 <0>        -0.6748
      8 C7         -1.1843   -2.0648   -0.0990 C.2       1 <0>         0.5139
      9 O1         -0.1274   -2.6596   -0.1129 O.2       1 <0>        -0.4971
     10 C8         -2.4797   -2.8278   -0.2038 C.3       1 <0>         0.0382
     11 N2         -2.1942   -4.2648   -0.3117 N.3       1 <0>        -0.5209
     12 C9         -1.4977   -4.5702   -1.5685 C.3       1 <0>         0.0369
     13 C10        -1.0590   -6.0384   -1.5617 C.3       1 <0>         0.1192
     14 N3         -2.2352   -6.8763   -1.2830 N.am      1 <0>        -0.6187
     15 C11        -3.0640   -6.5455   -0.1138 C.3       1 <0>         0.1124
     16 C12        -3.4238   -5.0573   -0.1776 C.3       1 <0>         0.0404
     17 C13        -2.5451   -7.9198   -2.0776 C.2       1 <0>         0.5134
     18 O2         -1.8503   -8.1785   -3.0374 O.2       1 <0>        -0.5361
     19 C14        -3.7551   -8.7652   -1.7735 C.3       1 <0>        -0.1380
     20 C15        -3.8789   -9.8738   -2.8207 C.3       1 <0>        -0.1027
     21 C16        -5.1073  -10.7320   -2.5120 C.3       1 <0>        -0.1303
     22 C17        -5.2311  -11.8406   -3.5592 C.3       1 <0>         0.1352
     23 N4         -6.4074  -12.6624   -3.2636 N.am      1 <0>        -0.7470
     24 C18        -6.7173  -13.7060   -4.0583 C.2       1 <0>         0.7030
     25 O3         -6.0207  -13.9653   -5.0205 O.2       1 <0>        -0.5926
     26 N5         -7.7994  -14.4620   -3.7863 N.am      1 <0>        -0.8684
     27 F1          3.5404    2.1041    0.0100 F         1 <0>        -0.1386
     28 H1         -0.8149    1.6719   -1.0464 H         1 <0>         0.1360
     29 H2          1.3017    2.9277   -1.0481 H         1 <0>         0.1403
     30 H3          3.2000   -0.2571    1.0677 H         1 <0>         0.1400
     31 H4          1.0877   -1.5201    1.0686 H         1 <0>         0.1502
     32 H5         -2.0452   -0.2514    0.0887 H         1 <0>         0.4127
     33 H6         -3.0831   -2.6430    0.6849 H         1 <0>         0.1118
     34 H7         -3.0250   -2.4983   -1.0882 H         1 <0>         0.0702
     35 H8         -2.1699   -4.3954   -2.4086 H         1 <0>         0.0357
     36 H9         -0.6214   -3.9291   -1.6638 H         1 <0>         0.1051
     37 H10        -0.6445   -6.3013   -2.5349 H         1 <0>         0.0965
     38 H11        -0.3078   -6.1925   -0.7870 H         1 <0>         0.0783
     39 H12        -3.9751   -7.1435   -0.1298 H         1 <0>         0.0923
     40 H13        -2.5055   -6.7483    0.8000 H         1 <0>         0.0811
     41 H14        -3.9443   -4.7695    0.7358 H         1 <0>         0.0921
     42 H15        -4.0691   -4.8757   -1.0371 H         1 <0>         0.0429
     43 H16        -3.6481   -9.2102   -0.7843 H         1 <0>         0.0950
     44 H17        -4.6490   -8.1419   -1.7968 H         1 <0>         0.0932
     45 H18        -3.9859   -9.4288   -3.8100 H         1 <0>         0.0748
     46 H19        -2.9850  -10.4971   -2.7975 H         1 <0>         0.0759
     47 H20        -5.0003  -11.1770   -1.5228 H         1 <0>         0.0708
     48 H21        -6.0012  -10.1087   -2.5353 H         1 <0>         0.0701
     49 H22        -5.3381  -11.3956   -4.5485 H         1 <0>         0.0685
     50 H23        -4.3373  -12.4639   -3.5360 H         1 <0>         0.0689
     51 H24        -6.9631  -12.4555   -2.4960 H         1 <0>         0.3962
     52 H25        -8.3551  -14.2551   -3.0187 H         1 <0>         0.3966
     53 H26        -8.0224  -15.2130   -4.3583 H         1 <0>         0.4157
@<TRIPOS>BOND
     1    1    6 ar
     2    1    2 ar
     3    1   28 1
     4    2    3 ar
     5    2   29 1
     6    3    4 ar
     7    3   27 1
     8    4    5 ar
     9    4   30 1
    10    5    6 ar
    11    5   31 1
    12    6    7 1
    13    7    8 am
    14    7   32 1
    15    8    9 2
    16    8   10 1
    17   10   11 1
    18   10   33 1
    19   10   34 1
    20   11   16 1
    21   11   12 1
    22   12   13 1
    23   12   35 1
    24   12   36 1
    25   13   14 1
    26   13   37 1
    27   13   38 1
    28   14   15 1
    29   14   17 am
    30   15   16 1
    31   15   39 1
    32   15   40 1
    33   16   41 1
    34   16   42 1
    35   17   18 2
    36   17   19 1
    37   19   20 1
    38   19   43 1
    39   19   44 1
    40   20   21 1
    41   20   45 1
    42   20   46 1
    43   21   22 1
    44   21   47 1
    45   21   48 1
    46   22   23 1
    47   22   49 1
    48   22   50 1
    49   23   24 am
    50   23   51 1
    51   24   25 2
    52   24   26 am
    53   26   52 1
    54   26   53 1
@<TRIPOS>MOLECULE
ZINC66672237
   53    55     0     0     0
SMALL
USER_CHARGES

@<TRIPOS>ATOM
      1 C1         -0.0187    1.5258    0.0104 C.3       1 <0>        -0.1328
      2 C2          0.0021   -0.0041    0.0020 C.3       1 <0>        -0.1124
      3 C3          0.7421   -0.5109    1.2415 C.3       1 <0>        -0.1434
      4 C4         -1.4117   -0.5257    0.0127 C.2       1 <0>         0.5230
      5 O1         -2.3441    0.2498    0.0258 O.2       1 <0>        -0.5062
      6 N1         -1.6400   -1.8540    0.0078 N.am      1 <0>        -0.7174
      7 C5         -3.0144   -2.3611    0.0182 C.3       1 <0>         0.1487
      8 H1         -2.9996   -3.4509    0.0122 H         1 <0>         0.1090
      9 C6         -3.7544   -1.8542   -1.2214 C.3       1 <0>        -0.0556
     10 C7         -3.1227   -2.4398   -2.4580 C.2       1 <0>        -0.1661
     11 C8         -2.1772   -1.8669   -3.2194 C.2       1 <0>         0.0659
     12 N2         -1.8483   -2.6958   -4.2572 N.pl3     1 <0>        -0.5948
     13 H2         -1.1887   -2.4984   -4.9404 H         1 <0>         0.4163
     14 C9         -2.5931   -3.8518   -4.1872 C.ar      1 <0>         0.0959
     15 C10        -3.4196   -3.7449   -3.0535 C.ar      1 <0>        -0.1016
     16 C11        -4.2902   -4.7856   -2.7256 C.ar      1 <0>        -0.0741
     17 C12        -4.3326   -5.9061   -3.5067 C.ar      1 <0>        -0.1443
     18 C13        -3.5166   -6.0182   -4.6237 C.ar      1 <0>        -0.0991
     19 C14        -2.6566   -4.9990   -4.9709 C.ar      1 <0>        -0.1292
     20 C15        -3.7198   -1.8751    1.2580 C.2       1 <0>         0.5022
     21 O2         -3.2941   -0.9116    1.8597 O.2       1 <0>        -0.4923
     22 N3         -4.8235   -2.5109    1.6984 N.am      1 <0>        -0.6457
     23 C16        -5.4824   -2.0569    2.8565 C.2       1 <0>         0.0061
     24 C17        -5.1069   -0.9583    3.6434 C.2       1 <0>         0.0566
     25 N4         -5.9587   -0.8488    4.6304 N.2       1 <0>        -0.2839
     26 N5         -6.9078   -1.8718    4.5100 N.pl3     1 <0>        -0.3714
     27 C18        -6.5976   -2.6010    3.4071 C.2       1 <0>         0.0195
     28 C19        -8.0378   -2.1100    5.4115 C.3       1 <0>         0.1422
     29 C20        -7.5251   -2.2491    6.8463 C.3       1 <0>         0.0656
     30 O3         -8.6273   -2.4815    7.7256 O.3       1 <0>        -0.5717
     31 H3          1.0039    1.9031    0.0027 H         1 <0>         0.0592
     32 H4         -0.5459    1.8868   -0.8726 H         1 <0>         0.0602
     33 H5         -0.5289    1.8773    0.9072 H         1 <0>         0.0644
     34 H6          0.5123   -0.3556   -0.8948 H         1 <0>         0.0914
     35 H7          0.2319   -0.1594    2.1383 H         1 <0>         0.0637
     36 H8          0.7568   -1.6008    1.2356 H         1 <0>         0.0564
     37 H9          1.7647   -0.1336    1.2338 H         1 <0>         0.0657
     38 H10        -0.8943   -2.4742   -0.0027 H         1 <0>         0.4036
     39 H11        -4.8002   -2.1571   -1.1694 H         1 <0>         0.0808
     40 H12        -3.6927   -0.7667   -1.2620 H         1 <0>         0.1009
     41 H13        -1.7410   -0.8954   -3.0396 H         1 <0>         0.1645
     42 H14        -4.9277   -4.7057   -1.8574 H         1 <0>         0.1198
     43 H15        -5.0064   -6.7111   -3.2526 H         1 <0>         0.1222
     44 H16        -3.5610   -6.9103   -5.2308 H         1 <0>         0.1247
     45 H17        -2.0246   -5.0963   -5.8413 H         1 <0>         0.1190
     46 H18        -5.1639   -3.2813    1.2173 H         1 <0>         0.4083
     47 H19        -4.2593   -0.3132    3.4653 H         1 <0>         0.2059
     48 H20        -7.1385   -3.4593    3.0367 H         1 <0>         0.1778
     49 H21        -8.7320   -1.2717    5.3533 H         1 <0>         0.0937
     50 H22        -8.5496   -3.0266    5.1181 H         1 <0>         0.1041
     51 H23        -6.8309   -3.0874    6.9044 H         1 <0>         0.0513
     52 H24        -7.0132   -1.3325    7.1396 H         1 <0>         0.0630
     53 H25        -8.3758   -2.5798    8.6541 H         1 <0>         0.3904
@<TRIPOS>BOND
     1    1    2 1
     2    1   31 1
     3    1   32 1
     4    1   33 1
     5    2    3 1
     6    2    4 1
     7    2   34 1
     8    3   35 1
     9    3   36 1
    10    3   37 1
    11    4    5 2
    12    4    6 am
    13    6    7 1
    14    6   38 1
    15    7    8 1
    16    7    9 1
    17    7   20 1
    18    9   10 1
    19    9   39 1
    20    9   40 1
    21   10   15 1
    22   10   11 2
    23   11   12 1
    24   11   41 1
    25   12   13 1
    26   12   14 1
    27   14   19 ar
    28   14   15 ar
    29   15   16 ar
    30   16   17 ar
    31   16   42 1
    32   17   18 ar
    33   17   43 1
    34   18   19 ar
    35   18   44 1
    36   19   45 1
    37   20   21 2
    38   20   22 am
    39   22   23 1
    40   22   46 1
    41   23   27 2
    42   23   24 1
    43   24   25 2
    44   24   47 1
    45   25   26 1
    46   26   27 1
    47   26   28 1
    48   27   48 1
    49   28   29 1
    50   28   49 1
    51   28   50 1
    52   29   30 1
    53   29   51 1
    54   29   52 1
    55   30   53 1
@<TRIPOS>MOLECULE
ZINC02858051
   42    43     0     0     0
SMALL
USER_CHARGES
1-[1-(1,3-dimethylpyrazol-4-yl)ethyl]-3-(4-sulfamoylphenyl)-thiourea
@<TRIPOS>ATOM
      1 C1         -1.3736    4.2181    4.4719 C.3       1 <0>        -0.0814
      2 C2         -1.3817    3.4130    3.1979 C.2       1 <0>         0.0961
      3 C3         -2.5185    3.0114    2.4888 C.2       1 <0>        -0.2484
      4 C4         -2.1078    2.3150    1.4037 C.2       1 <0>         0.0575
      5 N1         -0.7594    2.2693    1.4304 N.pl3     1 <0>        -0.3698
      6 N2         -0.3267    2.9688    2.5644 N.2       1 <0>        -0.2867
      7 C5          0.1004    1.6100    0.4443 C.3       1 <0>         0.0990
      8 C6         -3.9478    3.3074    2.8636 C.3       1 <0>         0.2237
      9 H1         -4.0478    3.3002    3.9490 H         1 <0>         0.1254
     10 C7         -4.3419    4.6839    2.3242 C.3       1 <0>        -0.1568
     11 N3         -4.8256    2.2868    2.2856 N.pl3     1 <0>        -0.6685
     12 C8         -6.0194    2.0245    2.8536 C.2       1 <0>         0.5549
     13 S1         -6.5100    2.8840    4.2505 S.2       1 <0>        -0.5946
     14 N4         -6.8269    1.0856    2.3218 N.pl3     1 <0>        -0.6418
     15 C9         -8.0255    0.7507    2.9606 C.ar      1 <0>         0.1867
     16 C10        -8.3826   -0.5825    3.1157 C.ar      1 <0>        -0.1456
     17 C11        -9.5643   -0.9099    3.7511 C.ar      1 <0>        -0.0126
     18 C12       -10.3968    0.0883    4.2233 C.ar      1 <0>        -0.6721
     19 C13       -10.0467    1.4168    4.0659 C.ar      1 <0>        -0.0108
     20 C14        -8.8638    1.7508    3.4360 C.ar      1 <0>        -0.0920
     21 S2        -11.9065   -0.3335    5.0279 S.o2      1 <0>         2.7012
     22 O1        -11.7425   -1.6511    5.5343 O.2       1 <0>        -0.9632
     23 O2        -12.2435    0.7666    5.8618 O.2       1 <0>        -0.9596
     24 N5        -13.0770   -0.4178    3.8596 N.pl3     1 <0>        -1.2502
     25 H2         -1.3361    5.2803    4.2302 H         1 <0>         0.0824
     26 H3         -2.2789    4.0067    5.0410 H         1 <0>         0.0835
     27 H4         -0.5000    3.9495    5.0658 H         1 <0>         0.0768
     28 H5         -2.7452    1.8726    0.6524 H         1 <0>         0.1664
     29 H6          0.2774    0.5785    0.7486 H         1 <0>         0.0778
     30 H7          1.0516    2.1384    0.3806 H         1 <0>         0.0931
     31 H8         -0.3883    1.6227   -0.5299 H         1 <0>         0.0885
     32 H9         -4.2419    4.6910    1.2389 H         1 <0>         0.0531
     33 H10        -5.3757    4.8980    2.5953 H         1 <0>         0.0764
     34 H11        -3.6888    5.4432    2.7543 H         1 <0>         0.0768
     35 H12        -4.5476    1.7998    1.4941 H         1 <0>         0.3949
     36 H13        -6.5770    0.6421    1.4962 H         1 <0>         0.4095
     37 H14        -7.7350   -1.3624    2.7431 H         1 <0>         0.1353
     38 H15        -9.8406   -1.9465    3.8756 H         1 <0>         0.1481
     39 H16       -10.6988    2.1940    4.4361 H         1 <0>         0.1494
     40 H17        -8.5908    2.7885    3.3137 H         1 <0>         0.1600
     41 H18       -12.8502   -0.2452    2.9324 H         1 <0>         0.4163
     42 H19       -13.9896   -0.6398    4.1024 H         1 <0>         0.4214
@<TRIPOS>BOND
     1    1    2 1
     2    1   25 1
     3    1   26 1
     4    1   27 1
     5    2    6 2
     6    2    3 1
     7    3    4 2
     8    3    8 1
     9    4    5 1
    10    4   28 1
    11    5    6 1
    12    5    7 1
    13    7   29 1
    14    7   30 1
    15    7   31 1
    16    8    9 1
    17    8   10 1
    18    8   11 1
    19   10   32 1
    20   10   33 1
    21   10   34 1
    22   11   12 1
    23   11   35 1
    24   12   13 2
    25   12   14 1
    26   14   15 1
    27   14   36 1
    28   15   20 ar
    29   15   16 ar
    30   16   17 ar
    31   16   37 1
    32   17   18 ar
    33   17   38 1
    34   18   19 ar
    35   18   21 1
    36   19   20 ar
    37   19   39 1
    38   20   40 1
    39   21   22 2
    40   21   23 2
    41   21   24 1
    42   24   41 1
    43   24   42 1
@<TRIPOS>MOLECULE
ZINC44677528
   36    36     0     0     0
SMALL
USER_CHARGES

@<TRIPOS>ATOM
      1 C1         -0.5807    1.5232   -0.9474 C.3       1 <0>         0.0311
      2 O1         -0.4932    0.1023   -0.8232 O.3       1 <0>        -0.3929
      3 C2          0.2971   -0.5222   -1.8369 C.3       1 <0>         0.0603
      4 C3          0.3207   -2.0345   -1.6058 C.3       1 <0>        -0.1201
      5 C4          1.1668   -2.7031   -2.6911 C.3       1 <0>        -0.1236
      6 C5          1.1904   -4.2154   -2.4600 C.3       1 <0>         0.1156
      7 N1          2.0006   -4.8556   -3.4993 N.pl3     1 <0>        -1.1231
      8 S1          2.5194   -6.4157   -3.3010 S.o2      1 <0>         2.6978
      9 O2          3.2420   -6.7558   -4.4763 O.2       1 <0>        -0.9501
     10 O3          3.0954   -6.4904   -2.0041 O.2       1 <0>        -0.9442
     11 C6          1.0872   -7.4417   -3.2758 C.ar      1 <0>        -0.7934
     12 C7          0.7554   -8.1544   -2.1375 C.ar      1 <0>         0.0982
     13 C8         -0.3824   -8.9509   -2.1623 C.ar      1 <0>        -0.2286
     14 C9         -1.1433   -9.0074   -3.3139 C.ar      1 <0>         0.2425
     15 N2         -0.8017   -8.3165   -4.3849 N.ar      1 <0>        -0.5241
     16 C10         0.2719   -7.5416   -4.3982 C.ar      1 <0>         0.5061
     17 N3          0.5905   -6.8257   -5.5469 N.pl3     1 <0>        -0.5543
     18 N4         -0.1301   -7.0153   -6.6918 N.3       1 <0>        -0.5921
     19 Br1        -0.8843   -9.9478   -0.6358 Br        1 <0>        -0.0230
     20 H1          0.4182    1.9553   -0.8884 H         1 <0>         0.0423
     21 H2         -1.0302    1.7769   -1.9075 H         1 <0>         0.0415
     22 H3         -1.1970    1.9211   -0.1412 H         1 <0>         0.0879
     23 H4         -0.1342   -0.3109   -2.8154 H         1 <0>         0.0488
     24 H5          1.3142   -0.1325   -1.7963 H         1 <0>         0.0508
     25 H6          0.7520   -2.2458   -0.6273 H         1 <0>         0.0786
     26 H7         -0.6964   -2.4242   -1.6464 H         1 <0>         0.0752
     27 H8          0.7355   -2.4918   -3.6696 H         1 <0>         0.0721
     28 H9          2.1839   -2.3134   -2.6505 H         1 <0>         0.0780
     29 H10         1.6217   -4.4267   -1.4815 H         1 <0>         0.0883
     30 H11         0.1733   -4.6051   -2.5006 H         1 <0>         0.0678
     31 H12         2.2331   -4.3657   -4.3035 H         1 <0>         0.4176
     32 H13         1.3674   -8.0933   -1.2497 H         1 <0>         0.1650
     33 H14        -2.0288   -9.6252   -3.3381 H         1 <0>         0.1766
     34 H15         1.3245   -6.1916   -5.5352 H         1 <0>         0.4095
     35 H16        -1.1131   -6.8540   -6.5312 H         1 <0>         0.3534
     36 H17         0.2153   -6.4300   -7.4376 H         1 <0>         0.3643
@<TRIPOS>BOND
     1    1    2 1
     2    1   20 1
     3    1   21 1
     4    1   22 1
     5    2    3 1
     6    3    4 1
     7    3   23 1
     8    3   24 1
     9    4    5 1
    10    4   25 1
    11    4   26 1
    12    5    6 1
    13    5   27 1
    14    5   28 1
    15    6    7 1
    16    6   29 1
    17    6   30 1
    18    7    8 1
    19    7   31 1
    20    8    9 2
    21    8   10 2
    22    8   11 1
    23   11   16 ar
    24   11   12 ar
    25   12   13 ar
    26   12   32 1
    27   13   14 ar
    28   13   19 1
    29   14   15 ar
    30   14   33 1
    31   15   16 ar
    32   16   17 1
    33   17   18 1
    34   17   34 1
    35   18   35 1
    36   18   36 1
@<TRIPOS>MOLECULE
ZINC54430565
   38    39     0     0     0
SMALL
USER_CHARGES

@<TRIPOS>ATOM
      1 C1         -0.0162    1.3409    0.0094 C.2       1 <0>        -0.2188
      2 C2          1.3313    1.7689   -0.0012 C.2       1 <0>        -0.1770
      3 C3          2.0923    0.6599   -0.0144 C.2       1 <0>        -0.0452
      4 O1          1.2819   -0.4111   -0.0124 O.3       1 <0>        -0.1710
      5 C4          0.0021   -0.0041    0.0020 C.2       1 <0>        -0.0236
      6 C5          3.5989    0.6249   -0.0294 C.3       1 <0>         0.2201
      7 N1          4.1006    0.6065    1.3469 N.am      1 <0>        -0.7359
      8 C6          5.4277    0.5745    1.5799 C.2       1 <0>         0.6963
      9 O2          6.2082    0.5610    0.6483 O.2       1 <0>        -0.5240
     10 N2          5.8894    0.5575    2.8460 N.am      1 <0>        -0.6900
     11 C7          7.2164    0.5256    3.0791 C.2       1 <0>         0.5245
     12 O3          7.9949    0.5121    2.1498 O.2       1 <0>        -0.4548
     13 C8          7.7326    0.5066    4.4948 C.3       1 <0>        -0.1234
     14 C9          9.2621    0.4711    4.4796 C.3       1 <0>        -0.1080
     15 S1          9.8834    0.4483    6.1837 S.3       1 <0>         0.0556
     16 C10        11.6352    0.4085    5.9982 C.2       1 <0>         0.2160
     17 N3         12.3004    0.4044    4.8664 N.2       1 <0>        -0.2728
     18 N4         13.5634    0.3719    5.1025 N.2       1 <0>        -0.1918
     19 C11        13.7779    0.3535    6.3876 C.2       1 <0>         0.0435
     20 N5         12.5577    0.3821    7.0045 N.pl3     1 <0>        -0.2821
     21 N6         12.3127    0.3812    8.3483 N.3       1 <0>        -0.5810
     22 C12        15.1220    0.3144    7.0681 C.3       1 <0>         0.5716
     23 F1         16.1214    0.6422    6.1457 F         1 <0>        -0.1378
     24 F2         15.1386    1.2357    8.1208 F         1 <0>        -0.1654
     25 F3         15.3536   -0.9709    7.5696 F         1 <0>        -0.1593
     26 H1         -0.8920    1.9726    0.0252 H         1 <0>         0.1524
     27 H2          1.6822    2.7903    0.0004 H         1 <0>         0.1523
     28 H3         -0.8653   -0.6475    0.0072 H         1 <0>         0.2067
     29 H4          3.9364   -0.2706   -0.5512 H         1 <0>         0.0895
     30 H5          3.9777    1.5089   -0.5424 H         1 <0>         0.1037
     31 H6          3.4778    0.6173    2.0904 H         1 <0>         0.4024
     32 H7          5.2665    0.5683    3.5896 H         1 <0>         0.4121
     33 H8          7.3951    1.4021    5.0166 H         1 <0>         0.1159
     34 H9          7.3538   -0.3774    5.0079 H         1 <0>         0.1154
     35 H10         9.5996   -0.4244    3.9578 H         1 <0>         0.1114
     36 H11         9.6409    1.3551    3.9665 H         1 <0>         0.1121
     37 H12        12.2263   -0.5608    8.6994 H         1 <0>         0.3760
     38 H13        13.0283    0.8887    8.8467 H         1 <0>         0.3844
@<TRIPOS>BOND
     1    1    5 2
     2    1    2 1
     3    1   26 1
     4    2    3 2
     5    2   27 1
     6    3    4 1
     7    3    6 1
     8    4    5 1
     9    5   28 1
    10    6    7 1
    11    6   29 1
    12    6   30 1
    13    7    8 am
    14    7   31 1
    15    8    9 2
    16    8   10 am
    17   10   11 am
    18   10   32 1
    19   11   12 2
    20   11   13 1
    21   13   14 1
    22   13   33 1
    23   13   34 1
    24   14   15 1
    25   14   35 1
    26   14   36 1
    27   15   16 1
    28   16   20 1
    29   16   17 2
    30   17   18 1
    31   18   19 2
    32   19   20 1
    33   19   22 1
    34   20   21 1
    35   21   37 1
    36   21   38 1
    37   22   23 1
    38   22   24 1
    39   22   25 1
@<TRIPOS>MOLECULE
ZINC58367222
   48    50     0     0     0
SMALL
USER_CHARGES

@<TRIPOS>ATOM
      1 C1          0.0290    1.2100   -0.7619 C.ar      1 <0>        -0.0702
      2 C2          1.2463    1.8639   -0.7629 C.ar      1 <0>        -0.1457
      3 C3          2.3086    1.3580   -0.0249 C.ar      1 <0>         0.1958
      4 C4          2.1465    0.1947    0.7140 C.ar      1 <0>        -0.1856
      5 C5          0.9232   -0.4594    0.7130 C.ar      1 <0>         0.2071
      6 C6         -0.1356    0.0517   -0.0274 C.ar      1 <0>        -0.1764
      7 N1          0.7558   -1.6331    1.4565 N.am      1 <0>        -0.5696
      8 C7         -0.4411   -2.4873    1.4424 C.3       1 <0>         0.0851
      9 C8         -0.0954   -3.6236    2.4244 C.3       1 <0>         0.0911
     10 N2          1.2596   -3.2889    2.8876 N.am      1 <0>        -0.7362
     11 C9          1.6627   -2.1600    2.2897 C.2       1 <0>         0.6998
     12 O1          2.7516   -1.6570    2.4884 O.2       1 <0>        -0.5666
     13 N3          3.5413    2.0205   -0.0268 N.am      1 <0>        -0.6844
     14 C10         3.5840    3.3641   -0.1240 C.2       1 <0>         0.7053
     15 O2          2.5525    4.0076   -0.1124 O.2       1 <0>        -0.5704
     16 N4          4.7703    3.9943   -0.2340 N.am      1 <0>        -0.7411
     17 C11         4.8167    5.4548   -0.3397 C.3       1 <0>         0.1372
     18 C12         6.2725    5.9119   -0.4524 C.3       1 <0>        -0.1176
     19 C13         6.3210    7.4371   -0.5627 C.3       1 <0>        -0.1368
     20 C14         7.7549    7.8874   -0.6738 C.2       1 <0>         0.5176
     21 O3          8.6499    7.0689   -0.6655 O.2       1 <0>        -0.5364
     22 N5          8.0427    9.1996   -0.7823 N.am      1 <0>        -0.7049
     23 C15         9.4366    9.6373   -0.8902 C.3       1 <0>         0.0758
     24 C16         9.8629   10.8492   -0.0593 C.3       1 <0>        -0.1928
     25 C17         9.7049   10.9786   -1.5756 C.3       1 <0>        -0.1886
     26 H1         -0.7969    1.6078   -1.3330 H         1 <0>         0.1313
     27 H2          1.3719    2.7690   -1.3385 H         1 <0>         0.1369
     28 H3          2.9711   -0.2009    1.2884 H         1 <0>         0.1607
     29 H4         -1.0883   -0.4569   -0.0283 H         1 <0>         0.1254
     30 H5         -1.3117   -1.9319    1.7912 H         1 <0>         0.0933
     31 H6         -0.6153   -2.8854    0.4428 H         1 <0>         0.0935
     32 H7         -0.7944   -3.6323    3.2608 H         1 <0>         0.0896
     33 H8         -0.0979   -4.5858    1.9123 H         1 <0>         0.0895
     34 H9          1.7803   -3.8058    3.5220 H         1 <0>         0.4345
     35 H10         4.3649    1.5127    0.0418 H         1 <0>         0.4088
     36 H11         5.5932    3.4810   -0.2433 H         1 <0>         0.4003
     37 H12         4.2665    5.7727   -1.2252 H         1 <0>         0.0706
     38 H13         4.3645    5.8978    0.5476 H         1 <0>         0.0701
     39 H14         6.8228    5.5940    0.4332 H         1 <0>         0.0793
     40 H15         6.7248    5.4689   -1.3397 H         1 <0>         0.0795
     41 H16         5.7708    7.7551   -1.4483 H         1 <0>         0.1004
     42 H17         5.8688    7.8802    0.3246 H         1 <0>         0.1002
     43 H18         7.3269    9.8542   -0.7889 H         1 <0>         0.4031
     44 H19        10.1690    8.8429   -1.0347 H         1 <0>         0.1381
     45 H20         9.1063   11.3208    0.5677 H         1 <0>         0.0975
     46 H21        10.8759   10.8523    0.3432 H         1 <0>         0.1034
     47 H22        10.6138   11.0669   -2.1706 H         1 <0>         0.1046
     48 H23         8.8442   11.5354   -1.9461 H         1 <0>         0.0980
@<TRIPOS>BOND
     1    1    6 ar
     2    1    2 ar
     3    1   26 1
     4    2    3 ar
     5    2   27 1
     6    3    4 ar
     7    3   13 1
     8    4    5 ar
     9    4   28 1
    10    5    6 ar
    11    5    7 1
    12    6   29 1
    13    7   11 am
    14    7    8 1
    15    8    9 1
    16    8   30 1
    17    8   31 1
    18    9   10 1
    19    9   32 1
    20    9   33 1
    21   10   11 am
    22   10   34 1
    23   11   12 2
    24   13   14 am
    25   13   35 1
    26   14   15 2
    27   14   16 am
    28   16   17 1
    29   16   36 1
    30   17   18 1
    31   17   37 1
    32   17   38 1
    33   18   19 1
    34   18   39 1
    35   18   40 1
    36   19   20 1
    37   19   41 1
    38   19   42 1
    39   20   21 2
    40   20   22 am
    41   22   23 1
    42   22   43 1
    43   23   25 1
    44   23   24 1
    45   23   44 1
    46   24   25 1
    47   24   45 1
    48   24   46 1
    49   25   47 1
    50   25   48 1
@<TRIPOS>MOLECULE
ZINC66240111
   40    41     0     0     0
SMALL
USER_CHARGES

@<TRIPOS>ATOM
      1 C1         -0.0225    1.8097    0.0120 C.3       1 <0>        -0.6733
      2 S1          0.0021   -0.0041    0.0020 S.o2      1 <0>         2.6183
      3 O1          0.8352   -0.4880    1.0465 O.2       1 <0>        -0.9542
      4 O2         -1.3147   -0.5105   -0.1678 O.2       1 <0>        -0.9535
      5 N1          0.7947   -0.4113   -1.3938 N.pl3     1 <0>        -1.1177
      6 C2          2.2072   -0.0612   -1.5629 C.3       1 <0>         0.1016
      7 C3          2.7924   -0.8537   -2.7335 C.3       1 <0>         0.1126
      8 N2          4.2049   -0.5036   -2.9026 N.am      1 <0>        -0.7260
      9 C4          4.9303   -1.0825   -3.8799 C.2       1 <0>         0.5632
     10 O3          4.4125   -1.8951   -4.6213 O.2       1 <0>        -0.5269
     11 C5          6.3538   -0.7297   -4.0503 C.ar      1 <0>        -0.1397
     12 C6          6.9520    0.1998   -3.1956 C.ar      1 <0>        -0.0599
     13 C7          8.2800    0.5261   -3.3571 C.ar      1 <0>        -0.1130
     14 C8          9.0257   -0.0682   -4.3695 C.ar      1 <0>         0.1857
     15 C9          8.4335   -0.9938   -5.2221 C.ar      1 <0>        -0.1553
     16 C10         7.1073   -1.3288   -5.0630 C.ar      1 <0>        -0.0281
     17 N3         10.3730    0.2656   -4.5308 N.pl3     1 <0>        -0.3495
     18 C11        11.3592   -0.5784   -4.9319 C.2       1 <0>         0.4340
     19 C12        12.5398    0.1588   -4.9581 C.2       1 <0>        -0.2544
     20 C13        12.2155    1.4757   -4.5562 C.2       1 <0>         0.1439
     21 N4         10.9360    1.5278   -4.3125 N.2       1 <0>        -0.2876
     22 C14        13.8374   -0.3246   -5.3230 C.1       1 <0>         0.2922
     23 N5         14.8668   -0.7081   -5.6125 N.1       1 <0>        -0.4358
     24 N6         11.2175   -1.9143   -5.2522 N.pl3     1 <0>        -0.8317
     25 H1          1.0001    2.1870    0.0043 H         1 <0>         0.1268
     26 H2         -0.5497    2.1708   -0.8711 H         1 <0>         0.1302
     27 H3         -0.5327    2.1613    0.9088 H         1 <0>         0.1318
     28 H4          0.3237   -0.8815   -2.0994 H         1 <0>         0.4224
     29 H5          2.2952    1.0060   -1.7665 H         1 <0>         0.0735
     30 H6          2.7532   -0.3034   -0.6511 H         1 <0>         0.0903
     31 H7          2.7044   -1.9209   -2.5299 H         1 <0>         0.0827
     32 H8          2.2464   -0.6115   -3.6453 H         1 <0>         0.0808
     33 H9          4.6180    0.1447   -2.3111 H         1 <0>         0.4029
     34 H10         6.3734    0.6619   -2.4094 H         1 <0>         0.1388
     35 H11         8.7430    1.2447   -2.6970 H         1 <0>         0.1470
     36 H12         9.0154   -1.4535   -6.0073 H         1 <0>         0.1386
     37 H13         6.6491   -2.0506   -5.7228 H         1 <0>         0.1505
     38 H14        12.9092    2.2989   -4.4696 H         1 <0>         0.2035
     39 H15        10.3454   -2.3357   -5.2002 H         1 <0>         0.4108
     40 H16        11.9902   -2.4313   -5.5291 H         1 <0>         0.4246
@<TRIPOS>BOND
     1    1    2 1
     2    1   25 1
     3    1   26 1
     4    1   27 1
     5    2    3 2
     6    2    4 2
     7    2    5 1
     8    5    6 1
     9    5   28 1
    10    6    7 1
    11    6   29 1
    12    6   30 1
    13    7    8 1
    14    7   31 1
    15    7   32 1
    16    8    9 am
    17    8   33 1
    18    9   10 2
    19    9   11 1
    20   11   16 ar
    21   11   12 ar
    22   12   13 ar
    23   12   34 1
    24   13   14 ar
    25   13   35 1
    26   14   15 ar
    27   14   17 1
    28   15   16 ar
    29   15   36 1
    30   16   37 1
    31   17   21 1
    32   17   18 1
    33   18   19 2
    34   18   24 1
    35   19   20 1
    36   19   22 1
    37   20   21 2
    38   20   38 1
    39   22   23 3
    40   24   39 1
    41   24   40 1
@<TRIPOS>MOLECULE
ZINC08229659
   51    53     0     0     0
SMALL
USER_CHARGES
N-(2-methyl-1-phenyl-benzoimidazol-5-yl)-4-methylsulfanyl-2-ureido-butanamide
@<TRIPOS>ATOM
      1 C1          4.7349    2.5209   -0.3646 C.3       1 <0>        -0.0792
      2 C2          3.2332    2.5188   -0.2390 C.2       1 <0>         0.2945
      3 N1          2.4797    1.4610   -0.3192 N.2       1 <0>        -0.4898
      4 C3          1.1773    1.8132   -0.1631 C.ar      1 <0>         0.0704
      5 C4         -0.0197    1.0925   -0.1612 C.ar      1 <0>        -0.0983
      6 C5         -1.2182    1.7556    0.0226 C.ar      1 <0>         0.1486
      7 C6         -1.2375    3.1354    0.2170 C.ar      1 <0>        -0.0962
      8 C7         -0.0632    3.8557    0.2165 C.ar      1 <0>        -0.0867
      9 C8          1.1482    3.2049    0.0275 C.ar      1 <0>         0.0396
     10 N2          2.4661    3.6243   -0.0256 N.pl3     1 <0>        -0.4472
     11 C9          2.9258    4.9404    0.1145 C.ar      1 <0>         0.1172
     12 C10         2.5911    5.8987   -0.8329 C.ar      1 <0>        -0.1081
     13 C11         3.0418    7.1964   -0.6895 C.ar      1 <0>        -0.1047
     14 C12         3.8346    7.5391    0.3903 C.ar      1 <0>        -0.1080
     15 C13         4.1736    6.5859    1.3330 C.ar      1 <0>        -0.1051
     16 C14         3.7216    5.2878    1.1979 C.ar      1 <0>        -0.1083
     17 N3         -2.4201    1.0357    0.0196 N.am      1 <0>        -0.6728
     18 C15        -3.5432    1.6013   -0.4653 C.2       1 <0>         0.4996
     19 O1         -3.4949    2.6957   -0.9861 O.2       1 <0>        -0.4773
     20 C16        -4.8589    0.8741   -0.3605 C.3       1 <0>         0.1646
     21 H1         -4.7053   -0.1859   -0.5628 H         1 <0>         0.1150
     22 C17        -5.4264    1.0472    1.0498 C.3       1 <0>        -0.1208
     23 C18        -6.6975    0.2080    1.1946 C.3       1 <0>        -0.0791
     24 S1         -7.3702    0.4131    2.8667 S.3       1 <0>        -0.2584
     25 C19        -8.8532   -0.6316    2.8743 C.3       1 <0>        -0.1215
     26 N4         -5.8011    1.4261   -1.3371 N.am      1 <0>        -0.7362
     27 C20        -6.1436    2.7285   -1.2815 C.2       1 <0>         0.7112
     28 O2         -5.6706    3.4452   -0.4208 O.2       1 <0>        -0.5621
     29 N5         -7.0104    3.2363   -2.1799 N.am      1 <0>        -0.8684
     30 H2          5.1821    2.3845    0.6200 H         1 <0>         0.0898
     31 H3          5.0458    1.7078   -1.0206 H         1 <0>         0.0985
     32 H4          5.0631    3.4719   -0.7842 H         1 <0>         0.0802
     33 H5         -0.0087    0.0225   -0.3072 H         1 <0>         0.1343
     34 H6         -2.1790    3.6437    0.3641 H         1 <0>         0.1454
     35 H7         -0.0852    4.9255    0.3626 H         1 <0>         0.1252
     36 H8          1.9759    5.6305   -1.6791 H         1 <0>         0.1287
     37 H9          2.7784    7.9432   -1.4239 H         1 <0>         0.1336
     38 H10         4.1895    8.5534    0.4979 H         1 <0>         0.1316
     39 H11         4.7927    6.8566    2.1755 H         1 <0>         0.1342
     40 H12         3.9867    4.5437    1.9345 H         1 <0>         0.1295
     41 H13        -2.4439    0.1301    0.3665 H         1 <0>         0.4103
     42 H14        -4.6884    0.7180    1.7813 H         1 <0>         0.0867
     43 H15        -5.6631    2.0975    1.2198 H         1 <0>         0.1091
     44 H16        -7.4355    0.5372    0.4631 H         1 <0>         0.0818
     45 H17        -6.4608   -0.8423    1.0245 H         1 <0>         0.0814
     46 H18        -8.5712   -1.6642    2.6689 H         1 <0>         0.0765
     47 H19        -9.3335   -0.5735    3.8510 H         1 <0>         0.1031
     48 H20        -9.5459   -0.2847    2.1075 H         1 <0>         0.0757
     49 H21        -6.1785    0.8543   -2.0238 H         1 <0>         0.4018
     50 H22        -7.3878    2.6645   -2.8666 H         1 <0>         0.3942
     51 H23        -7.2569    4.1736   -2.1399 H         1 <0>         0.4159
@<TRIPOS>BOND
     1    1    2 1
     2    1   30 1
     3    1   31 1
     4    1   32 1
     5    2   10 1
     6    2    3 2
     7    3    4 1
     8    4    9 ar
     9    4    5 ar
    10    5    6 ar
    11    5   33 1
    12    6    7 ar
    13    6   17 1
    14    7    8 ar
    15    7   34 1
    16    8    9 ar
    17    8   35 1
    18    9   10 1
    19   10   11 1
    20   11   16 ar
    21   11   12 ar
    22   12   13 ar
    23   12   36 1
    24   13   14 ar
    25   13   37 1
    26   14   15 ar
    27   14   38 1
    28   15   16 ar
    29   15   39 1
    30   16   40 1
    31   17   18 am
    32   17   41 1
    33   18   19 2
    34   18   20 1
    35   20   21 1
    36   20   22 1
    37   20   26 1
    38   22   23 1
    39   22   42 1
    40   22   43 1
    41   23   24 1
    42   23   44 1
    43   23   45 1
    44   24   25 1
    45   25   46 1
    46   25   47 1
    47   25   48 1
    48   26   27 am
    49   26   49 1
    50   27   28 2
    51   27   29 am
    52   29   50 1
    53   29   51 1
@<TRIPOS>MOLECULE
ZINC18467188
   42    44     0     0     0
SMALL
USER_CHARGES
(2S)-2-[[5-(cyclopropylamino)-1,3,4-thiadiazol-2-yl]sulfanyl]-N-(3-sulfamoylphenyl)propanamide
@<TRIPOS>ATOM
      1 C1          4.6812    2.2908   -1.3258 C.3       1 <0>        -0.1474
      2 C2          4.3842    3.0262   -0.0174 C.3       1 <0>        -0.1200
      3 H1          4.5662    2.3580    0.8243 H         1 <0>         0.1296
      4 C3          5.2805    4.2323    0.0956 C.2       1 <0>         0.5424
      5 O1          4.8540    5.3331   -0.1825 O.2       1 <0>        -0.4996
      6 N1          6.5563    4.0878    0.5057 N.am      1 <0>        -0.6640
      7 C4          7.4164    5.1913    0.5182 C.ar      1 <0>         0.1236
      8 C5          6.9260    6.4523    0.8322 C.ar      1 <0>        -0.0598
      9 C6          7.7775    7.5394    0.8437 C.ar      1 <0>        -0.1190
     10 C7          9.1172    7.3736    0.5430 C.ar      1 <0>        -0.0286
     11 C8          9.6085    6.1197    0.2301 C.ar      1 <0>        -0.6572
     12 C9          8.7631    5.0272    0.2225 C.ar      1 <0>        -0.0425
     13 S1         11.3162    5.9136   -0.1516 S.o2      1 <0>         2.7029
     14 O2         11.4166    4.7369   -0.9419 O.2       1 <0>        -0.9613
     15 O3         11.7869    7.1764   -0.6023 O.2       1 <0>        -0.9592
     16 N2         12.1012    5.5963    1.2715 N.pl3     1 <0>        -1.2495
     17 S2          2.6500    3.5582   -0.0030 S.3       1 <0>         0.1211
     18 C10         1.7411    2.0487    0.0086 C.2       1 <0>         0.0257
     19 N3          2.1841    0.8061    0.0067 N.2       1 <0>        -0.2723
     20 N4          1.2898   -0.2392    0.0166 N.2       1 <0>        -0.3710
     21 C11        -0.0058    0.0055    0.0279 C.2       1 <0>         0.3559
     22 S3         -0.0265    1.7917    0.0251 S.3       1 <0>         0.0050
     23 N5         -1.0708   -0.8876    0.0395 N.pl3     1 <0>        -0.6406
     24 C12        -0.8169   -2.3304    0.0396 C.3       1 <0>         0.0878
     25 C13        -1.6688   -3.1977   -0.8894 C.3       1 <0>        -0.1894
     26 C14        -1.9012   -3.2385    0.6230 C.3       1 <0>        -0.1840
     27 H2          4.4991    2.9589   -2.1675 H         1 <0>         0.0772
     28 H3          5.7232    1.9711   -1.3344 H         1 <0>         0.0770
     29 H4          4.0328    1.4184   -1.4075 H         1 <0>         0.0887
     30 H5          6.8781    3.2187    0.7921 H         1 <0>         0.4184
     31 H6          5.8800    6.5824    1.0674 H         1 <0>         0.1505
     32 H7          7.3969    8.5202    1.0881 H         1 <0>         0.1417
     33 H8          9.7812    8.2253    0.5531 H         1 <0>         0.1471
     34 H9          9.1483    4.0472   -0.0177 H         1 <0>         0.1481
     35 H10        11.6021    5.5564    2.1023 H         1 <0>         0.4170
     36 H11        13.0602    5.4504    1.2744 H         1 <0>         0.4222
     37 H12        -1.9822   -0.5555    0.0476 H         1 <0>         0.4222
     38 H13         0.2215   -2.6250    0.1912 H         1 <0>         0.1423
     39 H14        -2.4182   -2.6948   -1.5006 H         1 <0>         0.1004
     40 H15        -1.1909   -4.0630   -1.3486 H         1 <0>         0.1081
     41 H16        -1.5761   -4.1308    1.1582 H         1 <0>         0.1097
     42 H17        -2.8035   -2.7625    1.0069 H         1 <0>         0.1009
@<TRIPOS>BOND
     1    1    2 1
     2    1   27 1
     3    1   28 1
     4    1   29 1
     5    2    3 1
     6    2    4 1
     7    2   17 1
     8    4    5 2
     9    4    6 am
    10    6    7 1
    11    6   30 1
    12    7   12 ar
    13    7    8 ar
    14    8    9 ar
    15    8   31 1
    16    9   10 ar
    17    9   32 1
    18   10   11 ar
    19   10   33 1
    20   11   12 ar
    21   11   13 1
    22   12   34 1
    23   13   14 2
    24   13   15 2
    25   13   16 1
    26   16   35 1
    27   16   36 1
    28   17   18 1
    29   18   22 1
    30   18   19 2
    31   19   20 1
    32   20   21 2
    33   21   22 1
    34   21   23 1
    35   23   24 1
    36   23   37 1
    37   24   26 1
    38   24   25 1
    39   24   38 1
    40   25   26 1
    41   25   39 1
    42   25   40 1
    43   26   41 1
    44   26   42 1
@<TRIPOS>MOLECULE
ZINC43553730
   67    69     0     0     0
SMALL
USER_CHARGES

@<TRIPOS>ATOM
      1 C1         -1.9391    1.2849    0.6364 C.3       1 <0>        -0.1662
      2 C2         -1.8414   -0.2419    0.6552 C.3       1 <0>         0.1316
      3 N1         -0.8309   -0.6546    1.6323 N.am      1 <0>        -0.7131
      4 C3         -0.5716   -1.9636    1.8217 C.2       1 <0>         0.6464
      5 O1         -1.1761   -2.8014    1.1820 O.2       1 <0>        -0.5669
      6 O2          0.3571   -2.3428    2.7197 O.3       1 <0>        -0.3573
      7 C4          0.5808   -3.7493    2.8690 C.3       1 <0>         0.1261
      8 H1          0.3734   -4.2336    1.9067 H         1 <0>         0.0923
      9 C5         -0.3716   -4.3082    3.9186 C.3       1 <0>        -0.1403
     10 C6         -0.0626   -3.6822    5.2802 C.3       1 <0>        -0.1084
     11 C7          1.3575   -4.0629    5.7040 C.3       1 <0>        -0.0322
     12 C8          2.3598   -3.5984    4.6619 C.3       1 <0>        -0.0606
     13 H2          2.3572   -2.4821    4.6757 H         1 <0>         0.0699
     14 C9          2.0448   -3.9911    3.2320 C.3       1 <0>        -0.0335
     15 C10         2.4260   -5.4378    2.9197 C.3       1 <0>        -0.1458
     16 C11         2.8841   -3.0881    2.2943 C.3       1 <0>         0.0779
     17 O3          2.6287   -3.4459    0.9346 O.3       1 <0>        -0.5681
     18 C12         3.7733   -4.0129    5.0728 C.3       1 <0>        -0.1145
     19 C13         4.1140   -3.3212    6.3983 C.3       1 <0>        -0.1530
     20 C14         3.1173   -3.7312    7.4781 C.3       1 <0>         0.1127
     21 H3          3.2284   -4.7969    7.6900 H         1 <0>         0.0544
     22 C15         1.6804   -3.4279    7.0613 C.3       1 <0>        -0.0552
     23 H4          1.0053   -3.8734    7.8086 H         1 <0>         0.0885
     24 C16         1.4485   -1.9200    7.0490 C.3       1 <0>        -0.1305
     25 C17         1.4309   -1.4029    8.4644 C.2       1 <0>         0.5226
     26 O4          1.4319   -2.1813    9.3944 O.2       1 <0>        -0.5043
     27 N2          1.4139   -0.0754    8.6967 N.am      1 <0>        -0.7392
     28 C18         1.3967    0.4273   10.0726 C.3       1 <0>         0.2072
     29 C19         1.3799    1.9341   10.0567 C.2       1 <0>        -0.0374
     30 C20         0.2800    2.7084   10.0447 C.2       1 <0>        -0.1854
     31 C21         0.7241    4.0506   10.0321 C.2       1 <0>        -0.2175
     32 C22         2.0688    4.0163   10.0373 C.2       1 <0>        -0.0299
     33 O5          2.4604    2.7317   10.0580 O.3       1 <0>        -0.1718
     34 O6          3.4130   -3.0077    8.6819 O.3       1 <0>        -0.5452
     35 C23         1.4054   -5.5861    5.9014 C.3       1 <0>        -0.1549
     36 H5         -0.9730    1.7074    0.3605 H         1 <0>         0.0637
     37 H6         -2.6910    1.5919   -0.0905 H         1 <0>         0.0795
     38 H7         -2.2230    1.6429    1.6260 H         1 <0>         0.0639
     39 H8         -2.8075   -0.6644    0.9311 H         1 <0>         0.0703
     40 H9         -1.5575   -0.6000   -0.3344 H         1 <0>         0.0705
     41 H10        -0.3484    0.0142    2.1429 H         1 <0>         0.4047
     42 H11        -1.4001   -4.0387    3.6407 H         1 <0>         0.0677
     43 H12        -0.3099   -5.3896    3.9599 H         1 <0>         0.0858
     44 H13        -0.1620   -2.6018    5.1927 H         1 <0>         0.0705
     45 H14        -0.7735   -4.0549    6.0187 H         1 <0>         0.0684
     46 H15         2.3854   -5.5999    1.8426 H         1 <0>         0.0702
     47 H16         3.4366   -5.6329    3.2786 H         1 <0>         0.0652
     48 H17         1.7279   -6.1125    3.4152 H         1 <0>         0.0625
     49 H18         2.6101   -2.0452    2.4532 H         1 <0>         0.0520
     50 H19         3.9434   -3.2228    2.5127 H         1 <0>         0.0467
     51 H20         3.1220   -2.9199    0.2902 H         1 <0>         0.3787
     52 H21         3.8564   -5.0869    5.1966 H         1 <0>         0.0727
     53 H22         4.4939   -3.6849    4.3207 H         1 <0>         0.0647
     54 H23         5.1207   -3.6200    6.7029 H         1 <0>         0.0629
     55 H24         4.0965   -2.2416    6.2573 H         1 <0>         0.0679
     56 H25         2.2510   -1.4335    6.4944 H         1 <0>         0.0875
     57 H26         0.4932   -1.7032    6.5710 H         1 <0>         0.0945
     58 H27         1.4131    0.5471    7.9528 H         1 <0>         0.3986
     59 H28         0.5066    0.0593   10.5828 H         1 <0>         0.0955
     60 H29         2.2863    0.0794   10.5977 H         1 <0>         0.0833
     61 H30        -0.7455    2.3697   10.0441 H         1 <0>         0.1503
     62 H31         0.1029    4.9340   10.0203 H         1 <0>         0.1509
     63 H32         2.7225    4.8759   10.0300 H         1 <0>         0.2051
     64 H33         4.3008   -3.1687    9.0295 H         1 <0>         0.3646
     65 H34         1.0400   -6.0808    5.0014 H         1 <0>         0.0648
     66 H35         2.4327   -5.8953    6.0943 H         1 <0>         0.0599
     67 H36         0.7775   -5.8626    6.7484 H         1 <0>         0.0586
@<TRIPOS>BOND
     1    1    2 1
     2    1   36 1
     3    1   37 1
     4    1   38 1
     5    2    3 1
     6    2   39 1
     7    2   40 1
     8    3    4 am
     9    3   41 1
    10    4    5 2
    11    4    6 1
    12    6    7 1
    13    7    8 1
    14    7   14 1
    15    7    9 1
    16    9   10 1
    17    9   42 1
    18    9   43 1
    19   10   11 1
    20   10   44 1
    21   10   45 1
    22   11   22 1
    23   11   12 1
    24   11   35 1
    25   12   13 1
    26   12   14 1
    27   12   18 1
    28   14   15 1
    29   14   16 1
    30   15   46 1
    31   15   47 1
    32   15   48 1
    33   16   17 1
    34   16   49 1
    35   16   50 1
    36   17   51 1
    37   18   19 1
    38   18   52 1
    39   18   53 1
    40   19   20 1
    41   19   54 1
    42   19   55 1
    43   20   21 1
    44   20   22 1
    45   20   34 1
    46   22   23 1
    47   22   24 1
    48   24   25 1
    49   24   56 1
    50   24   57 1
    51   25   26 2
    52   25   27 am
    53   27   28 1
    54   27   58 1
    55   28   29 1
    56   28   59 1
    57   28   60 1
    58   29   33 1
    59   29   30 2
    60   30   31 1
    61   30   61 1
    62   31   32 2
    63   31   62 1
    64   32   33 1
    65   32   63 1
    66   34   64 1
    67   35   65 1
    68   35   66 1
    69   35   67 1
@<TRIPOS>MOLECULE
ZINC53094834
   55    56     0     0     0
SMALL
USER_CHARGES

@<TRIPOS>ATOM
      1 C1         -0.1440    1.4508   -0.0396 C.3       1 <0>        -0.1528
      2 C2         -0.1090   -0.0787   -0.0603 C.3       1 <0>        -0.1207
      3 C3          0.6106   -0.5893    1.1897 C.3       1 <0>         0.1340
      4 C4          0.8639   -2.0803    1.0875 C.2       1 <0>         0.5317
      5 O1          0.0343   -2.9592    0.9922 O.2       1 <0>        -0.4468
      6 N1          2.2033   -2.2257    1.1240 N.am      1 <0>        -0.3764
      7 C5          2.8249   -1.0461    1.2338 C.2       1 <0>         0.7072
      8 O2          4.0327   -0.9212    1.2861 O.2       1 <0>        -0.5227
      9 N2          1.9636   -0.0137    1.2803 N.am      1 <0>        -0.7097
     10 N3          2.8631   -3.4597    1.0561 N.am      1 <0>        -0.5038
     11 C6          3.4864   -3.8290   -0.0804 C.2       1 <0>         0.5149
     12 O3          3.4760   -3.0930   -1.0443 O.2       1 <0>        -0.4929
     13 C7          4.1961   -5.1564   -0.1534 C.3       1 <0>         0.1116
     14 N4          4.7881   -5.3211   -1.4834 N.pl3     1 <0>        -0.7165
     15 C8          5.4976   -6.4749   -1.7895 C.ar      1 <0>         0.2795
     16 C9          5.7437   -7.4252   -0.8060 C.ar      1 <0>        -0.2139
     17 C10         6.4484   -8.5708   -1.1128 C.ar      1 <0>        -0.0381
     18 C11         6.9158   -8.7838   -2.4003 C.ar      1 <0>        -0.1892
     19 C12         6.6818   -7.8532   -3.3886 C.ar      1 <0>        -0.0339
     20 C13         5.9650   -6.6901   -3.0953 C.ar      1 <0>        -0.2246
     21 C14         5.7057   -5.6928   -4.1497 C.2       1 <0>         0.5673
     22 O4          5.1771   -4.6344   -3.8688 O.2       1 <0>        -0.5417
     23 N5          6.0546   -5.9543   -5.4250 N.am      1 <0>        -0.7248
     24 C15         5.7969   -4.9634   -6.4728 C.3       1 <0>         0.1222
     25 C16         6.2848   -5.5049   -7.8180 C.3       1 <0>        -0.1087
     26 C17         5.4543   -6.7297   -8.2063 C.3       1 <0>        -0.1503
     27 C18         6.1305   -4.4235   -8.8894 C.3       1 <0>        -0.1462
     28 C19        -0.1988   -0.2623    2.4462 C.3       1 <0>        -0.1503
     29 H1          0.8750    1.8373   -0.0236 H         1 <0>         0.0584
     30 H2         -0.6566    1.8145   -0.9301 H         1 <0>         0.0696
     31 H3         -0.6753    1.7900    0.8496 H         1 <0>         0.0653
     32 H4         -1.1280   -0.4653   -0.0763 H         1 <0>         0.0937
     33 H5          0.4224   -0.4180   -0.9495 H         1 <0>         0.0769
     34 H6          2.1894    0.9264    1.3580 H         1 <0>         0.4445
     35 H7          2.8714   -4.0483    1.8270 H         1 <0>         0.4297
     36 H8          4.9823   -5.1900    0.6009 H         1 <0>         0.1039
     37 H9          3.4830   -5.9603    0.0289 H         1 <0>         0.1037
     38 H10         4.6844   -4.6242   -2.1501 H         1 <0>         0.4316
     39 H11         5.3832   -7.2666    0.1996 H         1 <0>         0.1285
     40 H12         6.6374   -9.3063   -0.3449 H         1 <0>         0.1275
     41 H13         7.4668   -9.6839   -2.6296 H         1 <0>         0.1258
     42 H14         7.0486   -8.0242   -4.3899 H         1 <0>         0.1232
     43 H15         6.4763   -6.7986   -5.6491 H         1 <0>         0.4001
     44 H16         4.7269   -4.7631   -6.5283 H         1 <0>         0.0696
     45 H17         6.3276   -4.0405   -6.2386 H         1 <0>         0.0695
     46 H18         7.3342   -5.7884   -7.7365 H         1 <0>         0.0771
     47 H19         5.5642   -7.5001   -7.4430 H         1 <0>         0.0538
     48 H20         4.4049   -6.4462   -8.2878 H         1 <0>         0.0583
     49 H21         5.8019   -7.1155   -9.1646 H         1 <0>         0.0596
     50 H22         6.7222   -3.5509   -8.6128 H         1 <0>         0.0587
     51 H23         6.4781   -4.8093   -9.8477 H         1 <0>         0.0616
     52 H24         5.0811   -4.1400   -8.9709 H         1 <0>         0.0588
     53 H25        -1.1773   -0.7382    2.3821 H         1 <0>         0.0884
     54 H26         0.3288   -0.6332    3.3250 H         1 <0>         0.0704
     55 H27        -0.3245    0.8174    2.5266 H         1 <0>         0.0881
@<TRIPOS>BOND
     1    1    2 1
     2    1   29 1
     3    1   30 1
     4    1   31 1
     5    2    3 1
     6    2   32 1
     7    2   33 1
     8    3    9 1
     9    3    4 1
    10    3   28 1
    11    4    5 2
    12    4    6 am
    13    6    7 am
    14    6   10 1
    15    7    8 2
    16    7    9 am
    17    9   34 1
    18   10   11 am
    19   10   35 1
    20   11   12 2
    21   11   13 1
    22   13   14 1
    23   13   36 1
    24   13   37 1
    25   14   15 1
    26   14   38 1
    27   15   20 ar
    28   15   16 ar
    29   16   17 ar
    30   16   39 1
    31   17   18 ar
    32   17   40 1
    33   18   19 ar
    34   18   41 1
    35   19   20 ar
    36   19   42 1
    37   20   21 1
    38   21   22 2
    39   21   23 am
    40   23   24 1
    41   23   43 1
    42   24   25 1
    43   24   44 1
    44   24   45 1
    45   25   26 1
    46   25   27 1
    47   25   46 1
    48   26   47 1
    49   26   48 1
    50   26   49 1
    51   27   50 1
    52   27   51 1
    53   27   52 1
    54   28   53 1
    55   28   54 1
    56   28   55 1
@<TRIPOS>MOLECULE
ZINC64900030
   52    52     0     0     0
SMALL
USER_CHARGES

@<TRIPOS>ATOM
      1 C1          0.4262    1.4730   -2.1919 C.3       1 <0>        -0.1340
      2 C2          0.8122    0.2090   -1.4677 C.ar      1 <0>         0.0431
      3 C3          0.2654   -0.9996   -1.8470 C.ar      1 <0>        -0.1475
      4 C4          0.6190   -2.1609   -1.1836 C.ar      1 <0>         0.0169
      5 C5          1.5221   -2.1189   -0.1360 C.ar      1 <0>        -0.6910
      6 C6          2.0761   -0.9171    0.2532 C.ar      1 <0>         0.0191
      7 C7          1.7279    0.2576   -0.4157 C.ar      1 <0>        -0.1560
      8 C8          2.3225    1.5484   -0.0079 C.2       1 <0>         0.5649
      9 O1          2.0958    2.5529   -0.6536 O.2       1 <0>        -0.5158
     10 N1          3.1158    1.6111    1.0798 N.am      1 <0>        -0.5271
     11 N2          3.6792    2.8343    1.4663 N.am      1 <0>        -0.5285
     12 C9          4.4725    2.8971    2.5540 C.2       1 <0>         0.7144
     13 O2          4.9614    3.9586    2.8894 O.2       1 <0>        -0.5657
     14 N3          4.7239    1.7832    3.2700 N.am      1 <0>        -0.7388
     15 C10         5.5862    1.8515    4.4523 C.3       1 <0>         0.1382
     16 C11         5.7069    0.4598    5.0766 C.3       1 <0>         0.0439
     17 O3          6.3801   -0.4133    4.1675 O.3       1 <0>        -0.3911
     18 C12         6.5457   -1.7458    4.6563 C.3       1 <0>         0.0280
     19 S1          1.9649   -3.6037    0.7031 S.o2      1 <0>         2.6949
     20 O4          2.1909   -3.2510    2.0609 O.2       1 <0>        -0.9583
     21 O5          1.0126   -4.5863    0.3196 O.2       1 <0>        -0.9475
     22 N4          3.4237   -4.0948    0.0924 N.pl3     1 <0>        -1.1073
     23 C13         3.5294   -4.5085   -1.3090 C.3       1 <0>         0.1738
     24 C14         2.9304   -3.4245   -2.2073 C.3       1 <0>        -0.1952
     25 C15         5.0018   -4.7142   -1.6704 C.3       1 <0>        -0.1509
     26 C16         2.7663   -5.8189   -1.5128 C.3       1 <0>        -0.1787
     27 H1          1.1837    1.7094   -2.9392 H         1 <0>         0.0883
     28 H2         -0.5366    1.3310   -2.6827 H         1 <0>         0.0691
     29 H3          0.3523    2.2929   -1.4775 H         1 <0>         0.1009
     30 H4         -0.4406   -1.0391   -2.6634 H         1 <0>         0.1458
     31 H5          0.1881   -3.1044   -1.4844 H         1 <0>         0.1533
     32 H6          2.7809   -0.8857    1.0710 H         1 <0>         0.1352
     33 H7          3.2967    0.8095    1.5951 H         1 <0>         0.4185
     34 H8          3.4983    3.6359    0.9510 H         1 <0>         0.4453
     35 H9          4.3338    0.9364    3.0024 H         1 <0>         0.3936
     36 H10         6.5749    2.2059    4.1609 H         1 <0>         0.0816
     37 H11         5.1532    2.5392    5.1786 H         1 <0>         0.0885
     38 H12         6.2746    0.5259    6.0047 H         1 <0>         0.0732
     39 H13         4.7115    0.0683    5.2866 H         1 <0>         0.0603
     40 H14         5.5677   -2.1831    4.8576 H         1 <0>         0.0464
     41 H15         7.0648   -2.3453    3.9085 H         1 <0>         0.0882
     42 H16         7.1308   -1.7255    5.5757 H         1 <0>         0.0442
     43 H17         4.2083   -4.1085    0.6626 H         1 <0>         0.4196
     44 H18         3.3346   -2.4529   -1.9232 H         1 <0>         0.0698
     45 H19         3.1833   -3.6334   -3.2468 H         1 <0>         0.0827
     46 H20         1.8466   -3.4149   -2.0919 H         1 <0>         0.0698
     47 H21         5.4285   -5.4865   -1.0304 H         1 <0>         0.0658
     48 H22         5.0804   -5.0221   -2.7130 H         1 <0>         0.0741
     49 H23         5.5454   -3.7807   -1.5252 H         1 <0>         0.0641
     50 H24         1.6949   -5.6293   -1.4477 H         1 <0>         0.0830
     51 H25         3.0038   -6.2287   -2.4945 H         1 <0>         0.0695
     52 H26         3.0566   -6.5322   -0.7414 H         1 <0>         0.0656
@<TRIPOS>BOND
     1    1    2 1
     2    1   27 1
     3    1   28 1
     4    1   29 1
     5    2    7 ar
     6    2    3 ar
     7    3    4 ar
     8    3   30 1
     9    4    5 ar
    10    4   31 1
    11    5    6 ar
    12    5   19 1
    13    6    7 ar
    14    6   32 1
    15    7    8 1
    16    8    9 2
    17    8   10 am
    18   10   11 1
    19   10   33 1
    20   11   12 am
    21   11   34 1
    22   12   13 2
    23   12   14 am
    24   14   15 1
    25   14   35 1
    26   15   16 1
    27   15   36 1
    28   15   37 1
    29   16   17 1
    30   16   38 1
    31   16   39 1
    32   17   18 1
    33   18   40 1
    34   18   41 1
    35   18   42 1
    36   19   20 2
    37   19   21 2
    38   19   22 1
    39   22   23 1
    40   22   43 1
    41   23   24 1
    42   23   25 1
    43   23   26 1
    44   24   44 1
    45   24   45 1
    46   24   46 1
    47   25   47 1
    48   25   48 1
    49   25   49 1
    50   26   50 1
    51   26   51 1
    52   26   52 1
@<TRIPOS>MOLECULE
ZINC10149885
   43    43     0     0     0
SMALL
USER_CHARGES
ethyl (E)-4-[(3-carbamoyl-4-ethyl-5-methyl-2-thienyl)carbamothioylamino]-4-oxo-but-2-enoate
@<TRIPOS>ATOM
      1 C1          1.4790   -2.6359   -1.4682 C.3       1 <0>        -0.1474
      2 C2          1.4443   -2.1355   -0.0227 C.3       1 <0>        -0.0688
      3 C3          1.3003   -0.6354   -0.0138 C.2       1 <0>        -0.0875
      4 C4          2.3759    0.1721   -0.0197 C.2       1 <0>        -0.2328
      5 S1          1.6635    1.8041   -0.0041 S.3       1 <0>         0.3169
      6 C5         -0.0168    1.3861    0.0097 C.2       1 <0>         0.0126
      7 C6          0.0021   -0.0041    0.0020 C.2       1 <0>        -0.1849
      8 C7         -1.2352   -0.7900    0.0101 C.2       1 <0>         0.5802
      9 O1         -1.7591   -1.1110   -1.0406 O.2       1 <0>        -0.5314
     10 N1         -1.7927   -1.1572    1.1809 N.am      1 <0>        -0.8493
     11 N2         -1.1141    2.2320    0.0198 N.pl3     1 <0>        -0.5513
     12 C8         -0.9352    3.5678    0.0261 C.2       1 <0>         0.4757
     13 S2          0.6479    4.2194    0.0217 S.2       1 <0>        -0.3733
     14 N3         -2.0026    4.3906    0.0359 N.am      1 <0>        -0.6302
     15 C9         -1.8237    5.7264    0.0423 C.2       1 <0>         0.5256
     16 O2         -0.7001    6.1889    0.0392 O.2       1 <0>        -0.3965
     17 C10        -2.9926    6.6274    0.0531 C.2       1 <0>        -0.1228
     18 C11        -2.8143    7.9586    0.0594 C.2       1 <0>        -0.0769
     19 C12        -3.9827    8.8592    0.0701 C.2       1 <0>         0.4937
     20 O3         -5.1058    8.3969    0.0733 O.2       1 <0>        -0.4959
     21 O4         -3.8038   10.1949    0.0765 O.3       1 <0>        -0.3463
     22 C13        -4.9986   11.0199    0.0870 C.3       1 <0>         0.0623
     23 C14        -4.5986   12.4967    0.0930 C.3       1 <0>        -0.1553
     24 C15         3.8331   -0.2118   -0.0353 C.3       1 <0>        -0.0680
     25 H1          0.5534   -2.3567   -1.9716 H         1 <0>         0.0586
     26 H2          2.3251   -2.1866   -1.9880 H         1 <0>         0.0566
     27 H3          1.5831   -3.7209   -1.4746 H         1 <0>         0.0551
     28 H4          2.3698   -2.4147    0.4808 H         1 <0>         0.0754
     29 H5          0.5981   -2.5848    0.4971 H         1 <0>         0.0607
     30 H6         -1.3752   -0.9013    2.0182 H         1 <0>         0.4042
     31 H7         -2.6114   -1.6772    1.1863 H         1 <0>         0.4031
     32 H8         -2.0111    1.8627    0.0223 H         1 <0>         0.4142
     33 H9         -2.8996    4.0214    0.0384 H         1 <0>         0.4202
     34 H10        -3.9913    6.2163    0.0558 H         1 <0>         0.1534
     35 H11        -1.8156    8.3697    0.0566 H         1 <0>         0.1636
     36 H12        -5.5940   10.8084   -0.8012 H         1 <0>         0.0744
     37 H13        -5.5851   10.7987    0.9787 H         1 <0>         0.0744
     38 H14        -4.0032   12.7082    0.9812 H         1 <0>         0.0692
     39 H15        -4.0121   12.7179   -0.7988 H         1 <0>         0.0693
     40 H16        -5.4955   13.1160    0.1009 H         1 <0>         0.0838
     41 H17         4.1749   -0.2991   -1.0666 H         1 <0>         0.0746
     42 H18         4.4160    0.5537    0.4771 H         1 <0>         0.0699
     43 H19         3.9625   -1.1676    0.4725 H         1 <0>         0.0706
@<TRIPOS>BOND
     1    1    2 1
     2    1   25 1
     3    1   26 1
     4    1   27 1
     5    2    3 1
     6    2   28 1
     7    2   29 1
     8    3    7 1
     9    3    4 2
    10    4    5 1
    11    4   24 1
    12    5    6 1
    13    6    7 2
    14    6   11 1
    15    7    8 1
    16    8    9 2
    17    8   10 am
    18   10   30 1
    19   10   31 1
    20   11   12 1
    21   11   32 1
    22   12   13 2
    23   12   14 1
    24   14   15 am
    25   14   33 1
    26   15   16 2
    27   15   17 1
    28   17   18 2
    29   17   34 1
    30   18   19 1
    31   18   35 1
    32   19   20 2
    33   19   21 1
    34   21   22 1
    35   22   23 1
    36   22   36 1
    37   22   37 1
    38   23   38 1
    39   23   39 1
    40   23   40 1
    41   24   41 1
    42   24   42 1
    43   24   43 1
@<TRIPOS>MOLECULE
ZINC40756645
   51    53     0     0     0
SMALL
USER_CHARGES

@<TRIPOS>ATOM
      1 C1         -0.0167    1.3782    0.0096 C.ar      1 <0>        -0.0869
      2 C2          1.1706    2.0858    0.0021 C.ar      1 <0>        -0.1126
      3 C3          2.3780    1.4104   -0.0130 C.ar      1 <0>        -0.0274
      4 C4          2.3961    0.0270   -0.0206 C.ar      1 <0>        -0.1126
      5 C5          1.2082   -0.6795   -0.0130 C.ar      1 <0>        -0.0868
      6 C6          0.0021   -0.0041    0.0020 C.ar      1 <0>        -0.1071
      7 C7         -1.2928   -0.7750    0.0107 C.3       1 <0>         0.1790
      8 N1         -1.7261   -1.0173   -1.3676 N.pl3     1 <0>        -0.7166
      9 C8         -2.9026   -1.7149   -1.6137 C.ar      1 <0>         0.4031
     10 C9         -3.3226   -1.9570   -2.9229 C.ar      1 <0>        -0.0097
     11 C10        -4.5115   -2.6628   -3.1139 C.ar      1 <0>         0.4038
     12 N2         -5.1946   -3.0752   -2.0486 N.ar      1 <0>        -0.5740
     13 C11        -4.7629   -2.8256   -0.8290 C.ar      1 <0>         0.3259
     14 N3         -3.6435   -2.1673   -0.6050 N.ar      1 <0>        -0.5746
     15 N4         -4.9750   -2.9304   -4.3965 N.pl3     1 <0>        -0.7197
     16 C12        -6.2244   -3.6722   -4.5839 C.3       1 <0>         0.1389
     17 C13        -6.5047   -3.8295   -6.0797 C.3       1 <0>        -0.1298
     18 C14        -7.8095   -4.6042   -6.2754 C.3       1 <0>         0.0595
     19 N5         -8.0786   -4.7552   -7.7117 N.3       1 <0>        -0.5377
     20 C15        -8.3557   -3.4532   -8.3355 C.3       1 <0>         0.0137
     21 C16        -8.5709   -3.6490   -9.8386 C.3       1 <0>         0.0626
     22 O1         -9.6323   -4.5852  -10.0451 O.3       1 <0>        -0.3853
     23 C17        -9.3953   -5.8644   -9.4512 C.3       1 <0>         0.0627
     24 C18        -9.1883   -5.6910   -7.9442 C.3       1 <0>         0.0169
     25 N6         -2.5696   -1.5023   -4.0180 N.pl3     1 <0>        -0.8779
     26 Cl1         3.8696    2.2984   -0.0231 Cl        1 <0>        -0.0657
     27 H1         -0.9592    1.9053    0.0259 H         1 <0>         0.1343
     28 H2          1.1558    3.1656    0.0076 H         1 <0>         0.1360
     29 H3          3.3383   -0.5007   -0.0327 H         1 <0>         0.1360
     30 H4          1.2222   -1.7594   -0.0193 H         1 <0>         0.1344
     31 H5         -1.1447   -1.7283    0.5180 H         1 <0>         0.0763
     32 H6         -2.0551   -0.1989    0.5352 H         1 <0>         0.0763
     33 H7         -1.1917   -0.6909   -2.1085 H         1 <0>         0.4034
     34 H8         -5.3423   -3.1746    0.0129 H         1 <0>         0.1931
     35 H9         -4.4714   -2.6261   -5.1676 H         1 <0>         0.4023
     36 H10        -6.1345   -4.6571   -4.1255 H         1 <0>         0.0664
     37 H11        -7.0442   -3.1272   -4.1159 H         1 <0>         0.0641
     38 H12        -6.5946   -2.8447   -6.5381 H         1 <0>         0.0676
     39 H13        -5.6849   -4.3745   -6.5477 H         1 <0>         0.0774
     40 H14        -7.7195   -5.5891   -5.8171 H         1 <0>         0.0812
     41 H15        -8.6293   -4.0592   -5.8075 H         1 <0>         0.0403
     42 H16        -9.2529   -3.0210   -7.8926 H         1 <0>         0.0441
     43 H17        -7.5104   -2.7845   -8.1730 H         1 <0>         0.0878
     44 H18        -8.8330   -2.6950  -10.2961 H         1 <0>         0.0984
     45 H19        -7.6556   -4.0310  -10.2906 H         1 <0>         0.0600
     46 H20       -10.2534   -6.5126   -9.6285 H         1 <0>         0.0995
     47 H21        -8.5039   -6.3108   -9.8920 H         1 <0>         0.0605
     48 H22        -8.9509   -6.6558   -7.4960 H         1 <0>         0.0881
     49 H23       -10.0989   -5.2945   -7.4950 H         1 <0>         0.0446
     50 H24        -1.7454   -1.0128   -3.8700 H         1 <0>         0.3930
     51 H25        -2.8737   -1.6779   -4.9222 H         1 <0>         0.3929
@<TRIPOS>BOND
     1    1    6 ar
     2    1    2 ar
     3    1   27 1
     4    2    3 ar
     5    2   28 1
     6    3    4 ar
     7    3   26 1
     8    4    5 ar
     9    4   29 1
    10    5    6 ar
    11    5   30 1
    12    6    7 1
    13    7    8 1
    14    7   31 1
    15    7   32 1
    16    8    9 1
    17    8   33 1
    18    9   14 ar
    19    9   10 ar
    20   10   11 ar
    21   10   25 1
    22   11   12 ar
    23   11   15 1
    24   12   13 ar
    25   13   14 ar
    26   13   34 1
    27   15   16 1
    28   15   35 1
    29   16   17 1
    30   16   36 1
    31   16   37 1
    32   17   18 1
    33   17   38 1
    34   17   39 1
    35   18   19 1
    36   18   40 1
    37   18   41 1
    38   19   24 1
    39   19   20 1
    40   20   21 1
    41   20   42 1
    42   20   43 1
    43   21   22 1
    44   21   44 1
    45   21   45 1
    46   22   23 1
    47   23   24 1
    48   23   46 1
    49   23   47 1
    50   24   48 1
    51   24   49 1
    52   25   50 1
    53   25   51 1
@<TRIPOS>MOLECULE
ZINC50059251
   50    51     0     0     0
SMALL
USER_CHARGES

@<TRIPOS>ATOM
      1 C1          0.5427   -1.2609   -2.1026 C.1       1 <0>        -0.1609
      2 C2          0.5579   -0.0920   -2.2109 C.1       1 <0>        -0.2179
      3 C3          0.5770    1.3736   -2.3467 C.3       1 <0>         0.2305
      4 N1          1.7886    1.9065   -1.7187 N.am      1 <0>        -0.7296
      5 C4          2.0206    3.2342   -1.7210 C.2       1 <0>         0.5202
      6 O1          1.2264    3.9877   -2.2429 O.2       1 <0>        -0.5277
      7 C5          3.2669    3.7823   -1.0750 C.3       1 <0>        -0.1530
      8 C6          3.2867    5.3057   -1.2161 C.3       1 <0>         0.1508
      9 N2          4.4983    5.8386   -0.5881 N.am      1 <0>        -0.7417
     10 C7          4.7303    7.1662   -0.5904 C.2       1 <0>         0.7037
     11 O2          3.9342    7.9216   -1.1136 O.2       1 <0>        -0.5611
     12 N3          5.8449    7.6565   -0.0126 N.am      1 <0>        -0.6856
     13 C8          6.1334    9.0179   -0.0981 C.ar      1 <0>         0.1919
     14 C9          5.1001    9.9494   -0.0713 C.ar      1 <0>        -0.1284
     15 C10         5.3814   11.2943   -0.1554 C.ar      1 <0>        -0.0364
     16 C11         6.7067   11.7237   -0.2674 C.ar      1 <0>        -0.1555
     17 C12         7.7421   10.7855   -0.2936 C.ar      1 <0>        -0.0646
     18 C13         7.4542    9.4423   -0.2041 C.ar      1 <0>        -0.1557
     19 C14         7.0119   13.1648   -0.3583 C.2       1 <0>         0.5611
     20 O3          6.1100   13.9799   -0.3358 O.2       1 <0>        -0.5350
     21 N4          8.2905   13.5773   -0.4663 N.am      1 <0>        -0.7244
     22 C15         8.5935   15.0078   -0.5565 C.3       1 <0>         0.1614
     23 C16        10.0841   15.1994   -0.6684 C.ar      1 <0>        -0.1117
     24 C17        10.8505   15.3395    0.4735 C.ar      1 <0>        -0.1007
     25 C18        12.2178   15.5153    0.3709 C.ar      1 <0>        -0.1216
     26 C19        12.8187   15.5505   -0.8735 C.ar      1 <0>        -0.1112
     27 C20        12.0524   15.4095   -2.0153 C.ar      1 <0>        -0.1214
     28 C21        10.6857   15.2294   -1.9126 C.ar      1 <0>        -0.1005
     29 H1          0.5291   -2.3063   -2.0057 H         1 <0>         0.2233
     30 H2          0.5679    1.6407   -3.4034 H         1 <0>         0.0944
     31 H3         -0.3012    1.7953   -1.8578 H         1 <0>         0.0945
     32 H4          2.4237    1.3039   -1.3013 H         1 <0>         0.4053
     33 H5          3.2760    3.5152   -0.0182 H         1 <0>         0.1041
     34 H6          4.1451    3.3607   -1.5639 H         1 <0>         0.1039
     35 H7          3.2776    5.5728   -2.2728 H         1 <0>         0.0805
     36 H8          2.4085    5.7273   -0.7272 H         1 <0>         0.0807
     37 H9          5.1335    5.2359   -0.1707 H         1 <0>         0.3981
     38 H10         6.4465    7.0622    0.4626 H         1 <0>         0.4092
     39 H11         4.0763    9.6168    0.0153 H         1 <0>         0.1489
     40 H12         4.5789   12.0168   -0.1353 H         1 <0>         0.1405
     41 H13         8.7673   11.1140   -0.3804 H         1 <0>         0.1287
     42 H14         8.2542    8.7169   -0.2202 H         1 <0>         0.1321
     43 H15         9.0100   12.9270   -0.4842 H         1 <0>         0.4006
     44 H16         8.1062   15.4276   -1.4365 H         1 <0>         0.0786
     45 H17         8.2282   15.5136    0.3372 H         1 <0>         0.0787
     46 H18        10.3810   15.3120    1.4457 H         1 <0>         0.1245
     47 H19        12.8165   15.6255    1.2630 H         1 <0>         0.1248
     48 H20        13.8868   15.6886   -0.9536 H         1 <0>         0.1239
     49 H21        12.5218   15.4374   -2.9876 H         1 <0>         0.1249
     50 H22        10.0874   15.1155   -2.8045 H         1 <0>         0.1246
@<TRIPOS>BOND
     1    1    2 3
     2    1   29 1
     3    2    3 1
     4    3    4 1
     5    3   30 1
     6    3   31 1
     7    4    5 am
     8    4   32 1
     9    5    6 2
    10    5    7 1
    11    7    8 1
    12    7   33 1
    13    7   34 1
    14    8    9 1
    15    8   35 1
    16    8   36 1
    17    9   10 am
    18    9   37 1
    19   10   11 2
    20   10   12 am
    21   12   13 1
    22   12   38 1
    23   13   18 ar
    24   13   14 ar
    25   14   15 ar
    26   14   39 1
    27   15   16 ar
    28   15   40 1
    29   16   17 ar
    30   16   19 1
    31   17   18 ar
    32   17   41 1
    33   18   42 1
    34   19   20 2
    35   19   21 am
    36   21   22 1
    37   21   43 1
    38   22   23 1
    39   22   44 1
    40   22   45 1
    41   23   28 ar
    42   23   24 ar
    43   24   25 ar
    44   24   46 1
    45   25   26 ar
    46   25   47 1
    47   26   27 ar
    48   26   48 1
    49   27   28 ar
    50   27   49 1
    51   28   50 1
@<TRIPOS>MOLECULE
ZINC62378509
   51    52     0     0     0
SMALL
USER_CHARGES

@<TRIPOS>ATOM
      1 C1          0.0771    1.2015   -2.2462 C.3       1 <0>        -0.1473
      2 C2         -0.6323    1.6806   -0.9781 C.3       1 <0>        -0.1127
      3 C3         -0.6606    3.2102   -0.9565 C.3       1 <0>        -0.1353
      4 C4         -2.0434    1.1519   -0.9617 C.2       1 <0>         0.5151
      5 O1         -2.9796    1.9226   -0.9352 O.2       1 <0>        -0.5168
      6 N1         -2.2652   -0.1774   -0.9763 N.am      1 <0>        -0.6737
      7 C5         -3.5714   -0.6710   -0.8636 C.ar      1 <0>         0.1263
      8 C6         -3.8104   -1.8518   -0.1730 C.ar      1 <0>        -0.1253
      9 C7         -5.0976   -2.3381   -0.0620 C.ar      1 <0>        -0.1268
     10 C8         -6.1534   -1.6468   -0.6413 C.ar      1 <0>         0.1481
     11 C9         -5.9144   -0.4662   -1.3323 C.ar      1 <0>        -0.0995
     12 C10        -4.6280    0.0236   -1.4376 C.ar      1 <0>        -0.1007
     13 N2         -7.4598   -2.1406   -0.5290 N.am      1 <0>        -0.6827
     14 C11        -8.3294   -1.9835   -1.5467 C.2       1 <0>         0.7097
     15 O2         -8.0078   -1.3408   -2.5274 O.2       1 <0>        -0.5710
     16 N3         -9.5555   -2.5387   -1.4771 N.am      1 <0>        -0.7257
     17 C12       -10.5008   -2.3679   -2.5833 C.3       1 <0>         0.1464
     18 C13       -10.2384   -3.4351   -3.6477 C.3       1 <0>        -0.1618
     19 C14       -11.9094   -2.5092   -2.0666 C.2       1 <0>         0.5157
     20 O3        -12.1045   -2.7308   -0.8903 O.2       1 <0>        -0.5312
     21 N4        -12.9523   -2.3894   -2.9118 N.am      1 <0>        -0.7223
     22 C15       -14.3217   -2.5268   -2.4096 C.3       1 <0>         0.2043
     23 C16       -15.2940   -2.3510   -3.5475 C.2       1 <0>        -0.0459
     24 C17       -15.7700   -3.3328   -4.3342 C.2       1 <0>        -0.1783
     25 C18       -16.6461   -2.7252   -5.2627 C.2       1 <0>        -0.2186
     26 C19       -16.6531   -1.4085   -4.9879 C.2       1 <0>        -0.0237
     27 O4        -15.8368   -1.1884   -3.9443 O.3       1 <0>        -0.1711
     28 H1          1.0977    1.5839   -2.2581 H         1 <0>         0.0721
     29 H2          0.0972    0.1118   -2.2616 H         1 <0>         0.0595
     30 H3         -0.4583    1.5674   -3.1223 H         1 <0>         0.0633
     31 H4         -0.0970    1.3147   -0.1020 H         1 <0>         0.1008
     32 H5         -1.1959    3.5761   -1.8326 H         1 <0>         0.0637
     33 H6         -1.1660    3.5516   -0.0531 H         1 <0>         0.0632
     34 H7          0.3601    3.5927   -0.9684 H         1 <0>         0.0645
     35 H8         -1.5203   -0.7924   -1.0648 H         1 <0>         0.4101
     36 H9         -2.9892   -2.3898    0.2770 H         1 <0>         0.1294
     37 H10        -5.2835   -3.2565    0.4751 H         1 <0>         0.1296
     38 H11        -6.7355    0.0712   -1.7831 H         1 <0>         0.1442
     39 H12        -4.4428    0.9443   -1.9710 H         1 <0>         0.1413
     40 H13        -7.7383   -2.5956    0.2811 H         1 <0>         0.4086
     41 H14        -9.8121   -3.0514   -0.6947 H         1 <0>         0.4080
     42 H15       -10.3721   -1.3782   -3.0216 H         1 <0>         0.1196
     43 H16       -10.9417   -3.3080   -4.4707 H         1 <0>         0.0729
     44 H17        -9.2196   -3.3329   -4.0214 H         1 <0>         0.0788
     45 H18       -10.3671   -4.4248   -3.2094 H         1 <0>         0.0654
     46 H19       -12.7963   -2.2121   -3.8526 H         1 <0>         0.4076
     47 H20       -14.4503   -3.5164   -1.9713 H         1 <0>         0.1028
     48 H21       -14.5086   -1.7664   -1.6513 H         1 <0>         0.0885
     49 H22       -15.5288   -4.3835   -4.2694 H         1 <0>         0.1519
     50 H23       -17.2027   -3.2227   -6.0432 H         1 <0>         0.1524
     51 H24       -17.2218   -0.6563   -5.5145 H         1 <0>         0.2067
@<TRIPOS>BOND
     1    1    2 1
     2    1   28 1
     3    1   29 1
     4    1   30 1
     5    2    3 1
     6    2    4 1
     7    2   31 1
     8    3   32 1
     9    3   33 1
    10    3   34 1
    11    4    5 2
    12    4    6 am
    13    6    7 1
    14    6   35 1
    15    7   12 ar
    16    7    8 ar
    17    8    9 ar
    18    8   36 1
    19    9   10 ar
    20    9   37 1
    21   10   11 ar
    22   10   13 1
    23   11   12 ar
    24   11   38 1
    25   12   39 1
    26   13   14 am
    27   13   40 1
    28   14   15 2
    29   14   16 am
    30   16   17 1
    31   16   41 1
    32   17   18 1
    33   17   19 1
    34   17   42 1
    35   18   43 1
    36   18   44 1
    37   18   45 1
    38   19   20 2
    39   19   21 am
    40   21   22 1
    41   21   46 1
    42   22   23 1
    43   22   47 1
    44   22   48 1
    45   23   27 1
    46   23   24 2
    47   24   25 1
    48   24   49 1
    49   25   26 2
    50   25   50 1
    51   26   27 1
    52   26   51 1
@<TRIPOS>MOLECULE
ZINC66700956
   42    42     0     0     0
SMALL
USER_CHARGES

@<TRIPOS>ATOM
      1 C1         -0.0182    1.5257   -0.0580 C.3       1 <0>        -0.1537
      2 C2          0.0025   -0.0041   -0.0599 C.3       1 <0>         0.0569
      3 O1         -1.3381   -0.4986   -0.0396 O.3       1 <0>        -0.3637
      4 C3         -1.4316   -1.9246   -0.0396 C.3       1 <0>         0.0565
      5 C4         -2.8821   -2.3328   -0.0175 C.2       1 <0>         0.5145
      6 O2         -3.7503   -1.4860   -0.0031 O.2       1 <0>        -0.5033
      7 N1         -3.2146   -3.6389   -0.0137 N.am      1 <0>        -0.5319
      8 N2         -4.5631   -4.0184    0.0069 N.am      1 <0>        -0.5289
      9 C5         -4.8956   -5.3245    0.0108 C.2       1 <0>         0.7151
     10 O3         -6.0658   -5.6539    0.0286 O.2       1 <0>        -0.5599
     11 N3         -3.9308   -6.2655   -0.0052 N.am      1 <0>        -0.7459
     12 C6         -4.2922   -7.6853   -0.0011 C.3       1 <0>         0.1493
     13 C7         -3.0203   -8.5354   -0.0218 C.3       1 <0>        -0.1531
     14 C8         -3.3921   -9.9958   -0.0175 C.2       1 <0>         0.5193
     15 O4         -4.5595  -10.3243    0.0003 O.2       1 <0>        -0.5069
     16 N4         -2.4273  -10.9368   -0.0335 N.am      1 <0>        -0.6737
     17 C9         -2.7683  -12.2904    0.0681 C.ar      1 <0>         0.1565
     18 C10        -1.9398  -13.1666    0.7568 C.ar      1 <0>        -0.1383
     19 C11        -2.2790  -14.5017    0.8559 C.ar      1 <0>        -0.0716
     20 C12        -3.4430  -14.9665    0.2699 C.ar      1 <0>        -0.1046
     21 C13        -4.2703  -14.0957   -0.4168 C.ar      1 <0>        -0.0709
     22 C14        -3.9386  -12.7586   -0.5146 C.ar      1 <0>        -0.1149
     23 Br1        -3.9037  -16.7954    0.4072 Br        1 <0>        -0.0476
     24 H1          1.0044    1.9029   -0.0736 H         1 <0>         0.0753
     25 H2         -0.5507    1.8830   -0.9395 H         1 <0>         0.0657
     26 H3         -0.5230    1.8812    0.8403 H         1 <0>         0.0657
     27 H4          0.5073   -0.3596   -0.9583 H         1 <0>         0.0537
     28 H5          0.5350   -0.3614    0.8215 H         1 <0>         0.0537
     29 H6         -0.9566   -2.3198   -0.9375 H         1 <0>         0.0878
     30 H7         -0.9289   -2.3217    0.8422 H         1 <0>         0.0878
     31 H8         -2.5203   -4.3162   -0.0252 H         1 <0>         0.4186
     32 H9         -5.2574   -3.3412    0.0184 H         1 <0>         0.4460
     33 H10        -2.9972   -6.0028   -0.0195 H         1 <0>         0.3904
     34 H11        -4.8659   -7.9115    0.8977 H         1 <0>         0.0829
     35 H12        -4.8936   -7.9097   -0.8821 H         1 <0>         0.0830
     36 H13        -2.4466   -8.3091   -0.9206 H         1 <0>         0.1076
     37 H14        -2.4189   -8.3110    0.8592 H         1 <0>         0.1078
     38 H15        -1.4967  -10.6759   -0.1154 H         1 <0>         0.4145
     39 H16        -1.0310  -12.8044    1.2141 H         1 <0>         0.1357
     40 H17        -1.6348  -15.1837    1.3911 H         1 <0>         0.1380
     41 H18        -5.1781  -14.4612   -0.8736 H         1 <0>         0.1377
     42 H19        -4.5868  -12.0785   -1.0472 H         1 <0>         0.1487
@<TRIPOS>BOND
     1    1    2 1
     2    1   24 1
     3    1   25 1
     4    1   26 1
     5    2    3 1
     6    2   27 1
     7    2   28 1
     8    3    4 1
     9    4    5 1
    10    4   29 1
    11    4   30 1
    12    5    6 2
    13    5    7 am
    14    7    8 1
    15    7   31 1
    16    8    9 am
    17    8   32 1
    18    9   10 2
    19    9   11 am
    20   11   12 1
    21   11   33 1
    22   12   13 1
    23   12   34 1
    24   12   35 1
    25   13   14 1
    26   13   36 1
    27   13   37 1
    28   14   15 2
    29   14   16 am
    30   16   17 1
    31   16   38 1
    32   17   22 ar
    33   17   18 ar
    34   18   19 ar
    35   18   39 1
    36   19   20 ar
    37   19   40 1
    38   20   21 ar
    39   20   23 1
    40   21   22 ar
    41   21   41 1
    42   22   42 1
@<TRIPOS>MOLECULE
ZINC02107435
   65    67     0     0     0
SMALL
USER_CHARGES
3-methyl-2-[3-methyl-2-[2-(oxoBLAHyl)oxyacetyl]amino-butanoyl]amino-butanoic acid
@<TRIPOS>ATOM
      1 C1         -0.3453   -1.9138    2.6973 C.3       1 <0>        -0.1439
      2 C2         -0.4091   -2.6118    1.3373 C.3       1 <0>        -0.0982
      3 H1         -1.3227   -2.3179    0.8206 H         1 <0>         0.0910
      4 C3         -0.4039   -4.1281    1.5415 C.3       1 <0>        -0.1346
      5 C4          0.8044   -2.2061    0.4984 C.3       1 <0>         0.1378
      6 H2          0.8115   -2.7769   -0.4301 H         1 <0>         0.1063
      7 C5          0.7275   -0.7345    0.1828 C.2       1 <0>         0.5180
      8 O1          1.3588    0.0615    0.8452 O.2       1 <0>        -0.5449
      9 N1         -0.0428   -0.3031   -0.8355 N.am      1 <0>        -0.6923
     10 C6         -0.2027    1.1333   -1.0754 C.3       1 <0>         0.0997
     11 H3          0.7286    1.6473   -0.8377 H         1 <0>         0.0878
     12 C7         -0.5542    1.3687   -2.5457 C.3       1 <0>        -0.0807
     13 H4          0.2014    0.9038   -3.1789 H         1 <0>         0.0576
     14 C8         -1.9219    0.7531   -2.8481 C.3       1 <0>        -0.1450
     15 C9         -0.5988    2.8724   -2.8250 C.3       1 <0>        -0.1556
     16 C10        -1.3087    1.6683   -0.2026 C.2       1 <0>         0.4651
     17 O2         -1.9024    0.9259    0.5432 O.co2     1 <0>        -0.6282
     18 N2          2.0315   -2.4809    1.2500 N.am      1 <0>        -0.7011
     19 C11         2.5815   -3.7109    1.2159 C.2       1 <0>         0.5171
     20 O3          2.0605   -4.5902    0.5630 O.2       1 <0>        -0.5109
     21 C12         3.8438   -3.9935    1.9890 C.3       1 <0>         0.0383
     22 O4          4.2261   -5.3567    1.7949 O.3       1 <0>        -0.2763
     23 C13         5.3511   -5.7773    2.4274 C.ar      1 <0>         0.1897
     24 C14         6.0716   -4.8867    3.2213 C.ar      1 <0>        -0.2257
     25 C15         7.2045   -5.2938    3.8642 C.ar      1 <0>        -0.0155
     26 C16         7.6452   -6.6151    3.7245 C.ar      1 <0>        -0.1904
     27 C17         6.9230   -7.5175    2.9247 C.ar      1 <0>         0.1849
     28 C18         5.7705   -7.0898    2.2831 C.ar      1 <0>        -0.1696
     29 O5          7.3571   -8.7891    2.7948 O.3       1 <0>        -0.2669
     30 C19         8.4652   -9.2139    3.4163 C.2       1 <0>         0.5136
     31 O6          8.8185  -10.3698    3.2664 O.2       1 <0>        -0.4629
     32 C20         9.2399   -8.3618    4.2421 C.2       1 <0>        -0.2202
     33 C21         8.8620   -7.0757    4.4063 C.2       1 <0>         0.0392
     34 C22         9.6303   -6.0931    5.2458 C.3       1 <0>        -0.0930
     35 C23        10.5777   -6.8225    6.1970 C.3       1 <0>        -0.1215
     36 C24        11.3950   -7.8318    5.3815 C.3       1 <0>        -0.1216
     37 C25        10.4576   -8.9422    4.9112 C.3       1 <0>        -0.0590
     38 H5         -0.3490   -0.8336    2.5518 H         1 <0>         0.0699
     39 H6         -1.2098   -2.2029    3.2950 H         1 <0>         0.0546
     40 H7          0.5683   -2.2078    3.2141 H         1 <0>         0.0473
     41 H8          0.4538   -4.4096    2.1524 H         1 <0>         0.0505
     42 H9         -1.3227   -4.4302    2.0442 H         1 <0>         0.0504
     43 H10        -0.3393   -4.6249    0.5735 H         1 <0>         0.0623
     44 H11        -0.4913   -0.9436   -1.4095 H         1 <0>         0.3937
     45 H12        -2.6776    1.2180   -2.2149 H         1 <0>         0.0673
     46 H13        -2.1723    0.9208   -3.8956 H         1 <0>         0.0495
     47 H14        -1.8901   -0.3181   -2.6491 H         1 <0>         0.0441
     48 H15         0.3755    3.3110   -2.6096 H         1 <0>         0.0435
     49 H16        -0.8493    3.0401   -3.8725 H         1 <0>         0.0380
     50 H17        -1.3545    3.3373   -2.1918 H         1 <0>         0.1062
     51 H18         2.4482   -1.7776    1.7722 H         1 <0>         0.4115
     52 H19         4.6405   -3.3389    1.6357 H         1 <0>         0.1004
     53 H20         3.6685   -3.8128    3.0495 H         1 <0>         0.1002
     54 H21         5.7313   -3.8673    3.3281 H         1 <0>         0.1435
     55 H22         7.7589   -4.5993    4.4780 H         1 <0>         0.1441
     56 H23         5.2045   -7.7757    1.6702 H         1 <0>         0.1549
     57 H24        10.2092   -5.4390    4.5938 H         1 <0>         0.0946
     58 H25         8.9304   -5.4923    5.8265 H         1 <0>         0.0899
     59 H26        11.2473   -6.1047    6.6708 H         1 <0>         0.0758
     60 H27        10.0013   -7.3462    6.9597 H         1 <0>         0.0703
     61 H28        11.8368   -7.3344    4.5181 H         1 <0>         0.0681
     62 H29        12.1830   -8.2550    6.0044 H         1 <0>         0.0749
     63 H30        10.1464   -9.5369    5.7700 H         1 <0>         0.0797
     64 H31        10.9852   -9.5823    4.2041 H         1 <0>         0.0833
     65 O7         -1.6342    2.9695   -0.2539 O.co2     1 <0>        -0.7562
@<TRIPOS>BOND
     1    1    2 1
     2    1   38 1
     3    1   39 1
     4    1   40 1
     5    2    3 1
     6    2    4 1
     7    2    5 1
     8    4   41 1
     9    4   42 1
    10    4   43 1
    11    5    6 1
    12    5    7 1
    13    5   18 1
    14    7    8 2
    15    7    9 am
    16    9   10 1
    17    9   44 1
    18   10   11 1
    19   10   12 1
    20   10   16 1
    21   12   13 1
    22   12   14 1
    23   12   15 1
    24   14   45 1
    25   14   46 1
    26   14   47 1
    27   15   48 1
    28   15   49 1
    29   15   50 1
    30   16   17 2
    31   16   65 1
    32   18   19 am
    33   18   51 1
    34   19   20 2
    35   19   21 1
    36   21   22 1
    37   21   52 1
    38   21   53 1
    39   22   23 1
    40   23   28 ar
    41   23   24 ar
    42   24   25 ar
    43   24   54 1
    44   25   26 ar
    45   25   55 1
    46   26   33 1
    47   26   27 ar
    48   27   28 ar
    49   27   29 1
    50   28   56 1
    51   29   30 1
    52   30   31 2
    53   30   32 1
    54   32   37 1
    55   32   33 2
    56   33   34 1
    57   34   35 1
    58   34   57 1
    59   34   58 1
    60   35   36 1
    61   35   59 1
    62   35   60 1
    63   36   37 1
    64   36   61 1
    65   36   62 1
    66   37   63 1
    67   37   64 1
@<TRIPOS>MOLECULE
ZINC13245209
   53    55     0     0     0
SMALL
USER_CHARGES
3-[2-[2-[(3-amino-3-oxo-propyl)-(4-fluorophenyl)amino]-2-oxo-ethyl]sulfanyl-4-oxo-quinazolin-3-yl]propanoic acid
@<TRIPOS>ATOM
      1 C1          3.3334    1.4631    5.7356 C.ar      1 <0>        -0.1510
      2 C2          2.7798    0.3552    6.3644 C.ar      1 <0>        -0.0724
      3 C3          1.8086   -0.3873    5.7544 C.ar      1 <0>        -0.1200
      4 C4          1.3630   -0.0294    4.4784 C.ar      1 <0>         0.1785
      5 C5          1.9288    1.0987    3.8417 C.ar      1 <0>        -0.2041
      6 C6          2.9185    1.8383    4.4876 C.ar      1 <0>        -0.0347
      7 C7          1.4434    1.4553    2.5016 C.2       1 <0>         0.5487
      8 O1          1.8918    2.4152    1.9023 O.2       1 <0>        -0.4985
      9 N1          0.4793    0.6761    1.9585 N.am      1 <0>        -0.5212
     10 C8         -0.0156   -0.3942    2.6475 C.2       1 <0>         0.3641
     11 N2          0.4063   -0.7333    3.8407 N.2       1 <0>        -0.5506
     12 S1         -1.2748   -1.3691    1.8934 S.3       1 <0>         0.1050
     13 C9         -1.5433   -2.5974    3.1954 C.3       1 <0>        -0.1601
     14 C10        -2.6118   -3.5665    2.7591 C.2       1 <0>         0.5350
     15 O2         -3.1397   -3.4393    1.6745 O.2       1 <0>        -0.4936
     16 N3         -2.9806   -4.5746    3.5740 N.am      1 <0>        -0.5685
     17 C11        -2.2713   -4.7924    4.8372 C.3       1 <0>         0.1218
     18 C12        -2.9490   -3.9874    5.9480 C.3       1 <0>        -0.1669
     19 C13        -2.2193   -4.2114    7.2474 C.2       1 <0>         0.5240
     20 O3         -1.2525   -4.9428    7.2817 O.2       1 <0>        -0.5397
     21 N4         -2.6411   -3.5989    8.3714 N.am      1 <0>        -0.8552
     22 C14        -4.0419   -5.4139    3.2133 C.ar      1 <0>         0.1314
     23 C15        -5.3376   -4.9167    3.1698 C.ar      1 <0>        -0.0780
     24 C16        -6.3822   -5.7447    2.8082 C.ar      1 <0>        -0.1415
     25 C17        -6.1396   -7.0728    2.5002 C.ar      1 <0>         0.1002
     26 C18        -4.8488   -7.5721    2.5485 C.ar      1 <0>        -0.1420
     27 C19        -3.8007   -6.7459    2.9041 C.ar      1 <0>        -0.0864
     28 F1         -7.1634   -7.8824    2.1517 F         1 <0>        -0.1379
     29 C20        -0.0414    0.9866    0.6248 C.3       1 <0>         0.1049
     30 C21         0.7897    0.2539   -0.4304 C.3       1 <0>        -0.1716
     31 C22         0.2540    0.5733   -1.8024 C.2       1 <0>         0.4715
     32 O4         -0.6950    1.3111   -1.9237 O.co2     1 <0>        -0.6368
     33 H1          4.0997    2.0348    6.2379 H         1 <0>         0.1288
     34 H2          3.1225    0.0763    7.3499 H         1 <0>         0.1291
     35 H3          1.3869   -1.2461    6.2554 H         1 <0>         0.1346
     36 H4          3.3546    2.7009    4.0059 H         1 <0>         0.1356
     37 H5         -0.6157   -3.1388    3.3811 H         1 <0>         0.1337
     38 H6         -1.8600   -2.0948    4.1093 H         1 <0>         0.1291
     39 H7         -2.2961   -5.8524    5.0898 H         1 <0>         0.0969
     40 H8         -1.2360   -4.4678    4.7332 H         1 <0>         0.1002
     41 H9         -2.9242   -2.9274    5.6954 H         1 <0>         0.1015
     42 H10        -3.9843   -4.3120    6.0520 H         1 <0>         0.1024
     43 H11        -3.4144   -3.0139    8.3439 H         1 <0>         0.4027
     44 H12        -2.1715   -3.7430    9.2077 H         1 <0>         0.4032
     45 H13        -5.5279   -3.8821    3.4143 H         1 <0>         0.1348
     46 H14        -7.3895   -5.3572    2.7696 H         1 <0>         0.1407
     47 H15        -4.6616   -8.6081    2.3076 H         1 <0>         0.1410
     48 H16        -2.7941   -7.1356    2.9413 H         1 <0>         0.1382
     49 H17         0.0183    2.0612    0.4525 H         1 <0>         0.1093
     50 H18        -1.0806    0.6648    0.5565 H         1 <0>         0.1005
     51 H19         0.7299   -0.8207   -0.2581 H         1 <0>         0.0743
     52 H20         1.8288    0.5757   -0.3622 H         1 <0>         0.0725
     53 O5          0.8313    0.0380   -2.8895 O.co2     1 <0>        -0.7633
@<TRIPOS>BOND
     1    1    6 ar
     2    1    2 ar
     3    1   33 1
     4    2    3 ar
     5    2   34 1
     6    3    4 ar
     7    3   35 1
     8    4   11 1
     9    4    5 ar
    10    5    6 ar
    11    5    7 1
    12    6   36 1
    13    7    8 2
    14    7    9 am
    15    9   10 1
    16    9   29 1
    17   10   11 2
    18   10   12 1
    19   12   13 1
    20   13   14 1
    21   13   37 1
    22   13   38 1
    23   14   15 2
    24   14   16 am
    25   16   17 1
    26   16   22 1
    27   17   18 1
    28   17   39 1
    29   17   40 1
    30   18   19 1
    31   18   41 1
    32   18   42 1
    33   19   20 2
    34   19   21 am
    35   21   43 1
    36   21   44 1
    37   22   27 ar
    38   22   23 ar
    39   23   24 ar
    40   23   45 1
    41   24   25 ar
    42   24   46 1
    43   25   26 ar
    44   25   28 1
    45   26   27 ar
    46   26   47 1
    47   27   48 1
    48   29   30 1
    49   29   49 1
    50   29   50 1
    51   30   31 1
    52   30   51 1
    53   30   52 1
    54   31   32 2
    55   31   53 1
@<TRIPOS>MOLECULE
ZINC13468369
   58    60     0     0     0
SMALL
USER_CHARGES
1-[2-[[4-[[(3R)-1,1-dioxothiolan-3-yl]sulfamoyl]phenyl]amino]-2-oxo-ethyl]cycloheptane-1-carboxylic acid
@<TRIPOS>ATOM
      1 C1         -0.8499    1.0343   -5.5571 C.ar      1 <0>        -0.1492
      2 C2          0.3306    0.4845   -5.0971 C.ar      1 <0>         0.0079
      3 C3          1.0548    1.1257   -4.1088 C.ar      1 <0>        -0.7131
      4 C4          0.5972    2.3161   -3.5742 C.ar      1 <0>        -0.0068
      5 C5         -0.5799    2.8738   -4.0336 C.ar      1 <0>        -0.1831
      6 C6         -1.3095    2.2323   -5.0260 C.ar      1 <0>         0.2282
      7 N1         -2.5053    2.7918   -5.4895 N.am      1 <0>        -0.6860
      8 C7         -3.4677    1.9978   -5.9993 C.2       1 <0>         0.4913
      9 O1         -3.3306    0.7928   -5.9845 O.2       1 <0>        -0.4276
     10 C8         -4.7141    2.6071   -6.5876 C.3       1 <0>        -0.1266
     11 C9         -5.6829    1.4947   -6.9938 C.3       1 <0>        -0.0888
     12 C10        -6.4890    1.9366   -8.1850 C.3       1 <0>        -0.0969
     13 C11        -6.6181    3.4714   -8.2706 C.3       1 <0>        -0.1142
     14 C12        -6.8718    4.1301   -6.9011 C.3       1 <0>        -0.1385
     15 C13        -7.8590    3.3605   -6.0660 C.3       1 <0>        -0.1160
     16 C14        -7.0781    2.4049   -5.1408 C.3       1 <0>        -0.1184
     17 C15        -6.6474    1.1963   -5.8277 C.3       1 <0>        -0.1006
     18 C16        -4.9075    0.2500   -7.3407 C.2       1 <0>         0.5033
     19 O2         -5.1551   -0.7917   -6.7808 O.co2     1 <0>        -0.6421
     20 S1          2.5600    0.4206   -3.5243 S.o2      1 <0>         2.6932
     21 O3          2.7675    0.9336   -2.2155 O.2       1 <0>        -0.9580
     22 O4          2.4874   -0.9727   -3.7937 O.2       1 <0>        -0.9525
     23 N2          3.7811    1.0221   -4.4674 N.pl3     1 <0>        -1.1033
     24 C17         4.0934    2.4531   -4.4367 C.3       1 <0>         0.1459
     25 H1          3.7657    2.8810   -3.4893 H         1 <0>         0.1183
     26 C18         3.3842    3.1645   -5.6009 C.3       1 <0>        -0.1567
     27 C19         3.9524    4.5940   -5.7706 C.3       1 <0>        -0.5719
     28 S2          5.6713    4.4227   -5.1394 S.o2      1 <0>         2.3716
     29 O5          5.8279    5.2494   -3.9943 O.2       1 <0>        -0.9309
     30 O6          6.5786    4.5530   -6.2253 O.2       1 <0>        -0.9342
     31 C20         5.6258    2.6601   -4.6046 C.3       1 <0>        -0.5859
     32 H2         -1.4152    0.5329   -6.3287 H         1 <0>         0.1651
     33 H3          0.6883   -0.4474   -5.5094 H         1 <0>         0.1412
     34 H4          1.1629    2.8123   -2.7996 H         1 <0>         0.1393
     35 H5         -0.9346    3.8056   -3.6187 H         1 <0>         0.1332
     36 H6         -2.6417    3.7511   -5.4440 H         1 <0>         0.4075
     37 H7         -5.1891    3.2498   -5.8463 H         1 <0>         0.1091
     38 H8         -4.4506    3.1977   -7.4650 H         1 <0>         0.0968
     39 H9         -6.0104    1.5663   -9.0917 H         1 <0>         0.0690
     40 H10        -7.4877    1.5055   -8.1145 H         1 <0>         0.0528
     41 H11        -7.4439    3.7184   -8.9378 H         1 <0>         0.0530
     42 H12        -5.6970    3.8760   -8.6901 H         1 <0>         0.0569
     43 H13        -7.2548    5.1382   -7.0602 H         1 <0>         0.0505
     44 H14        -5.9275    4.1949   -6.3606 H         1 <0>         0.0774
     45 H15        -8.5175    2.7842   -6.7158 H         1 <0>         0.0648
     46 H16        -8.4505    4.0506   -5.4644 H         1 <0>         0.0548
     47 H17        -7.7160    2.1260   -4.3021 H         1 <0>         0.0533
     48 H18        -6.2001    2.9253   -4.7581 H         1 <0>         0.0557
     49 H19        -7.5247    0.6807   -6.2185 H         1 <0>         0.0556
     50 H20        -6.1459    0.5437   -5.1131 H         1 <0>         0.0670
     51 H21         4.2896    0.4269   -5.0402 H         1 <0>         0.4236
     52 H22         3.5426    2.6004   -6.5201 H         1 <0>         0.1003
     53 H23         2.3158    3.2224   -5.3927 H         1 <0>         0.1068
     54 H24         3.3893    5.3079   -5.1695 H         1 <0>         0.1437
     55 H25         3.9536    4.8872   -6.8204 H         1 <0>         0.1464
     56 H26         6.1483    2.5218   -3.6580 H         1 <0>         0.1509
     57 H27         6.0302    2.0037   -5.3752 H         1 <0>         0.1486
     58 O7         -3.9418    0.2985   -8.2717 O.co2     1 <0>        -0.7815
@<TRIPOS>BOND
     1    1    6 ar
     2    1    2 ar
     3    1   32 1
     4    2    3 ar
     5    2   33 1
     6    3    4 ar
     7    3   20 1
     8    4    5 ar
     9    4   34 1
    10    5    6 ar
    11    5   35 1
    12    6    7 1
    13    7    8 am
    14    7   36 1
    15    8    9 2
    16    8   10 1
    17   10   11 1
    18   10   37 1
    19   10   38 1
    20   11   17 1
    21   11   12 1
    22   11   18 1
    23   12   13 1
    24   12   39 1
    25   12   40 1
    26   13   14 1
    27   13   41 1
    28   13   42 1
    29   14   15 1
    30   14   43 1
    31   14   44 1
    32   15   16 1
    33   15   45 1
    34   15   46 1
    35   16   17 1
    36   16   47 1
    37   16   48 1
    38   17   49 1
    39   17   50 1
    40   18   19 2
    41   18   58 1
    42   20   21 2
    43   20   22 2
    44   20   23 1
    45   23   24 1
    46   23   51 1
    47   24   25 1
    48   24   31 1
    49   24   26 1
    50   26   27 1
    51   26   52 1
    52   26   53 1
    53   27   28 1
    54   27   54 1
    55   27   55 1
    56   28   29 2
    57   28   30 2
    58   28   31 1
    59   31   56 1
    60   31   57 1
@<TRIPOS>MOLECULE
ZINC36612828
   52    54     0     0     0
SMALL
USER_CHARGES

@<TRIPOS>ATOM
      1 C1         -2.9311   -2.5866    0.0366 C.3       1 <0>        -0.1503
      2 C2         -1.4974   -2.0544    0.0837 C.3       1 <0>         0.0584
      3 O1         -0.7515   -2.5978   -1.0074 O.3       1 <0>        -0.3476
      4 C3          0.5630   -2.2947   -1.0626 C.2       1 <0>         0.5426
      5 O2          1.0773   -1.6506   -0.1666 O.2       1 <0>        -0.4735
      6 C4          1.3396   -2.7238   -2.1570 C.2       1 <0>        -0.2320
      7 C5          1.7572   -4.0196   -2.2632 C.2       1 <0>         0.2438
      8 N1          2.5147   -4.4283   -3.3351 N.am      1 <0>        -0.6486
      9 C6          2.8912   -3.6131   -4.3281 C.2       1 <0>         0.7097
     10 O3          3.5615   -4.0658   -5.2355 O.2       1 <0>        -0.5682
     11 N2          2.5537   -2.3095   -4.3582 N.am      1 <0>        -0.7055
     12 C7          1.7361   -1.7653   -3.2617 C.3       1 <0>         0.2539
     13 H1          0.8235   -1.3523   -3.6914 H         1 <0>         0.0890
     14 C8          2.5043   -0.6292   -2.6368 C.ar      1 <0>        -0.1326
     15 C9          3.8048   -0.8275   -2.2117 C.ar      1 <0>        -0.0761
     16 C10         4.5136    0.2115   -1.6379 C.ar      1 <0>        -0.1837
     17 C11         3.9210    1.4550   -1.4882 C.ar      1 <0>         0.1280
     18 C12         2.6122    1.6547   -1.9166 C.ar      1 <0>         0.0933
     19 C13         1.9089    0.6104   -2.4953 C.ar      1 <0>        -0.1535
     20 O4          2.0262    2.8733   -1.7719 O.3       1 <0>        -0.2967
     21 C14         0.6480    2.9777   -2.1348 C.3       1 <0>         0.0283
     22 O5          4.6168    2.4780   -0.9235 O.3       1 <0>        -0.2680
     23 C15         5.9552    2.2001   -0.5069 C.3       1 <0>        -0.0086
     24 C16         6.5635    3.4427    0.0906 C.2       1 <0>         0.5018
     25 O6          5.9113    4.4709    0.1538 O.co2     1 <0>        -0.6683
     26 O7          7.7078    3.4198    0.5108 O.co2     1 <0>        -0.6890
     27 C17         1.3913   -4.9927   -1.2145 C.ar      1 <0>        -0.0836
     28 C18         0.8545   -6.2335   -1.5653 C.ar      1 <0>        -0.0896
     29 C19         0.5155   -7.1378   -0.5805 C.ar      1 <0>        -0.1191
     30 C20         0.7056   -6.8180    0.7523 C.ar      1 <0>        -0.0997
     31 C21         1.2365   -5.5903    1.1070 C.ar      1 <0>        -0.1147
     32 C22         1.5858   -4.6788    0.1325 C.ar      1 <0>        -0.0892
     33 H2         -3.4251   -2.2206   -0.8635 H         1 <0>         0.0652
     34 H3         -2.9139   -3.6764    0.0240 H         1 <0>         0.0655
     35 H4         -3.4756   -2.2419    0.9156 H         1 <0>         0.0782
     36 H5         -1.5108   -0.9671    0.0088 H         1 <0>         0.0680
     37 H6         -1.0315   -2.3482    1.0243 H         1 <0>         0.0682
     38 H7          2.7915   -5.3571   -3.3740 H         1 <0>         0.4266
     39 H8          2.8405   -1.7413   -5.0902 H         1 <0>         0.4352
     40 H9          4.2678   -1.7962   -2.3277 H         1 <0>         0.1126
     41 H10         5.5292    0.0538   -1.3059 H         1 <0>         0.1353
     42 H11         0.8943    0.7637   -2.8320 H         1 <0>         0.1277
     43 H12         0.5257    2.6984   -3.1813 H         1 <0>         0.0494
     44 H13         0.0559    2.3100   -1.5090 H         1 <0>         0.0490
     45 H14         0.3111    4.0043   -1.9910 H         1 <0>         0.0979
     46 H15         5.9459    1.4054    0.2389 H         1 <0>         0.0590
     47 H16         6.5453    1.8843   -1.3672 H         1 <0>         0.0589
     48 H17         0.7049   -6.4841   -2.6051 H         1 <0>         0.1286
     49 H18         0.1003   -8.0976   -0.8503 H         1 <0>         0.1297
     50 H19         0.4380   -7.5297    1.5193 H         1 <0>         0.1276
     51 H20         1.3819   -5.3471    2.1492 H         1 <0>         0.1307
     52 H21         2.0046   -3.7229    0.4106 H         1 <0>         0.1359
@<TRIPOS>BOND
     1    1    2 1
     2    1   33 1
     3    1   34 1
     4    1   35 1
     5    2    3 1
     6    2   36 1
     7    2   37 1
     8    3    4 1
     9    4    5 2
    10    4    6 1
    11    6   12 1
    12    6    7 2
    13    7    8 1
    14    7   27 1
    15    8    9 am
    16    8   38 1
    17    9   10 2
    18    9   11 am
    19   11   12 1
    20   11   39 1
    21   12   13 1
    22   12   14 1
    23   14   19 ar
    24   14   15 ar
    25   15   16 ar
    26   15   40 1
    27   16   17 ar
    28   16   41 1
    29   17   18 ar
    30   17   22 1
    31   18   19 ar
    32   18   20 1
    33   19   42 1
    34   20   21 1
    35   21   43 1
    36   21   44 1
    37   21   45 1
    38   22   23 1
    39   23   24 1
    40   23   46 1
    41   23   47 1
    42   24   25 2
    43   24   26 1
    44   27   32 ar
    45   27   28 ar
    46   28   29 ar
    47   28   48 1
    48   29   30 ar
    49   29   49 1
    50   30   31 ar
    51   30   50 1
    52   31   32 ar
    53   31   51 1
    54   32   52 1
@<TRIPOS>MOLECULE
ZINC43743773
   71    74     0     0     0
SMALL
USER_CHARGES

@<TRIPOS>ATOM
      1 C1          0.2949    0.9364   -0.6113 C.3       1 <0>        -0.2081
      2 C2         -0.0919   -0.1216    0.3898 C.2       1 <0>         0.3660
      3 O1          0.6179   -0.3403    1.3419 O.2       1 <0>        -0.4563
      4 C3         -1.3646   -0.9066    0.2026 C.3       1 <0>        -0.1326
      5 H1         -2.1373   -0.2738   -0.2338 H         1 <0>         0.0965
      6 C4         -1.8445   -1.4821    1.5583 C.3       1 <0>        -0.1178
      7 C5         -1.9350   -3.0215    1.3734 C.3       1 <0>        -0.1148
      8 C6         -2.1129   -3.1754   -0.1413 C.3       1 <0>        -0.0791
      9 H2         -3.1313   -2.9177   -0.4319 H         1 <0>         0.0770
     10 C7         -1.1111   -2.1201   -0.6859 C.3       1 <0>        -0.0488
     11 C8         -1.4004   -1.9480   -2.1647 C.3       1 <0>        -0.1041
     12 C9         -1.0769   -3.2859   -2.8483 C.3       1 <0>        -0.1232
     13 C10        -1.8804   -4.4359   -2.2481 C.3       1 <0>        -0.0665
     14 H3         -2.9369   -4.2838   -2.4691 H         1 <0>         0.0690
     15 C11        -1.7256   -4.5255   -0.7169 C.3       1 <0>        -0.0763
     16 H4         -0.6893   -4.7535   -0.4675 H         1 <0>         0.0848
     17 C12        -2.6599   -5.6083   -0.1688 C.3       1 <0>        -0.1099
     18 C13        -2.2132   -6.9718   -0.7002 C.3       1 <0>        -0.0871
     19 C14        -2.1652   -6.9148   -2.2162 C.2       1 <0>        -0.0608
     20 C15        -2.7535   -7.8979   -2.8886 C.2       1 <0>        -0.1162
     21 C16        -2.7254   -7.9036   -4.3616 C.2       1 <0>         0.1646
     22 N1         -3.5885   -8.5731   -5.0580 N.2       1 <0>        -0.3386
     23 O2         -3.5263   -8.5519   -6.4725 O.3       1 <0>        -0.2071
     24 C17        -4.5383   -9.3335   -7.1105 C.3       1 <0>         0.0621
     25 C18        -4.3778   -9.2389   -8.6060 C.2       1 <0>         0.5168
     26 O3         -3.4847   -8.5682   -9.0788 O.2       1 <0>        -0.5344
     27 N2         -5.2266   -9.8997   -9.4179 N.am      1 <0>        -0.6855
     28 C19        -5.0706   -9.8078  -10.8717 C.3       1 <0>         0.0725
     29 H5         -4.7247   -8.8089  -11.1376 H         1 <0>         0.0948
     30 C20        -6.4165  -10.0781  -11.5472 C.3       1 <0>         0.0888
     31 O4         -6.8140  -11.4272  -11.2942 O.3       1 <0>        -0.5581
     32 C21        -4.0625  -10.8280  -11.3342 C.2       1 <0>         0.5019
     33 O5         -3.6607  -11.6816  -10.5619 O.co2     1 <0>        -0.6806
     34 O6         -3.6488  -10.7999  -12.4807 O.co2     1 <0>        -0.7014
     35 C22        -1.6317   -7.0843   -5.0189 C.3       1 <0>        -0.1159
     36 C23        -1.6513   -5.6984   -4.3757 C.3       1 <0>        -0.1032
     37 C24        -1.4224   -5.7542   -2.8843 C.3       1 <0>        -0.0147
     38 C25         0.0796   -5.9014   -2.6327 C.3       1 <0>        -0.1480
     39 C26         0.3226   -2.6167   -0.4888 C.3       1 <0>        -0.1569
     40 H6          1.2380    1.3932   -0.3111 H         1 <0>         0.0799
     41 H7          0.4085    0.4814   -1.5952 H         1 <0>         0.0928
     42 H8         -0.4820    1.6999   -0.6515 H         1 <0>         0.0911
     43 H9         -1.1266   -1.2411    2.3423 H         1 <0>         0.0776
     44 H10        -2.8246   -1.0774    1.8106 H         1 <0>         0.0662
     45 H11        -1.0157   -3.5044    1.7047 H         1 <0>         0.0694
     46 H12        -2.7968   -3.4239    1.9057 H         1 <0>         0.0669
     47 H13        -2.4519   -1.7009   -2.3111 H         1 <0>         0.0673
     48 H14        -0.7716   -1.1588   -2.5768 H         1 <0>         0.0640
     49 H15        -1.3081   -3.2072   -3.9106 H         1 <0>         0.0673
     50 H16        -0.0138   -3.4964   -2.7320 H         1 <0>         0.0739
     51 H17        -2.6168   -5.6097    0.9203 H         1 <0>         0.0681
     52 H18        -3.6808   -5.4073   -0.4938 H         1 <0>         0.0649
     53 H19        -1.2225   -7.2084   -0.3120 H         1 <0>         0.0780
     54 H20        -2.9231   -7.7369   -0.3857 H         1 <0>         0.0740
     55 H21        -3.2530   -8.6931   -2.3552 H         1 <0>         0.1298
     56 H22        -4.4435  -10.3740   -6.8000 H         1 <0>         0.0865
     57 H23        -5.5211   -8.9575   -6.8261 H         1 <0>         0.0800
     58 H24        -5.9409  -10.4361   -9.0398 H         1 <0>         0.3972
     59 H25        -7.1673   -9.3969  -11.1467 H         1 <0>         0.0384
     60 H26        -6.3213   -9.9228  -12.6219 H         1 <0>         0.0615
     61 H27        -7.6608  -11.6692  -11.6935 H         1 <0>         0.3673
     62 H28        -0.6636   -7.5567   -4.8521 H         1 <0>         0.0869
     63 H29        -1.8242   -6.9994   -6.0884 H         1 <0>         0.0926
     64 H30        -0.8548   -5.0939   -4.8099 H         1 <0>         0.0740
     65 H31        -2.6099   -5.2234   -4.5844 H         1 <0>         0.0659
     66 H32         0.2685   -5.9151   -1.5593 H         1 <0>         0.0601
     67 H33         0.4326   -6.8327   -3.0756 H         1 <0>         0.0584
     68 H34         0.6076   -5.0614   -3.0840 H         1 <0>         0.0655
     69 H35         0.5037   -2.7923    0.5715 H         1 <0>         0.0631
     70 H36         0.4642   -3.5461   -1.0405 H         1 <0>         0.0736
     71 H37         1.0212   -1.8655   -0.8572 H         1 <0>         0.0494
@<TRIPOS>BOND
     1    1    2 1
     2    1   40 1
     3    1   41 1
     4    1   42 1
     5    2    3 2
     6    2    4 1
     7    4    5 1
     8    4   10 1
     9    4    6 1
    10    6    7 1
    11    6   43 1
    12    6   44 1
    13    7    8 1
    14    7   45 1
    15    7   46 1
    16    8    9 1
    17    8   15 1
    18    8   10 1
    19   10   11 1
    20   10   39 1
    21   11   12 1
    22   11   47 1
    23   11   48 1
    24   12   13 1
    25   12   49 1
    26   12   50 1
    27   13   14 1
    28   13   37 1
    29   13   15 1
    30   15   16 1
    31   15   17 1
    32   17   18 1
    33   17   51 1
    34   17   52 1
    35   18   19 1
    36   18   53 1
    37   18   54 1
    38   19   37 1
    39   19   20 2
    40   20   21 1
    41   20   55 1
    42   21   22 2
    43   21   35 1
    44   22   23 1
    45   23   24 1
    46   24   25 1
    47   24   56 1
    48   24   57 1
    49   25   26 2
    50   25   27 am
    51   27   28 1
    52   27   58 1
    53   28   29 1
    54   28   30 1
    55   28   32 1
    56   30   31 1
    57   30   59 1
    58   30   60 1
    59   31   61 1
    60   32   33 2
    61   32   34 1
    62   35   36 1
    63   35   62 1
    64   35   63 1
    65   36   37 1
    66   36   64 1
    67   36   65 1
    68   37   38 1
    69   38   66 1
    70   38   67 1
    71   38   68 1
    72   39   69 1
    73   39   70 1
    74   39   71 1
@<TRIPOS>MOLECULE
ZINC08361556
   50    50     0     0     0
SMALL
USER_CHARGES
4-methylsulfanyl-N-[(3,4,5-trimethoxyphenyl)methyl]-2-ureido-butanamide
@<TRIPOS>ATOM
      1 C1         -6.2918    1.6501    5.5550 C.3       1 <0>         0.0241
      2 O1         -6.9371    2.8086    5.0223 O.3       1 <0>        -0.3011
      3 C2         -6.1887    3.6235    4.2316 C.ar      1 <0>         0.1489
      4 C3         -4.8617    3.3140    3.9745 C.ar      1 <0>        -0.2156
      5 C4         -4.1000    4.1422    3.1716 C.ar      1 <0>        -0.0342
      6 C5         -4.6556    5.2844    2.6262 C.ar      1 <0>        -0.2142
      7 C6         -5.9836    5.5978    2.8735 C.ar      1 <0>         0.1502
      8 C7         -6.7528    4.7680    3.6805 C.ar      1 <0>         0.0354
      9 O2         -8.0549    5.0750    3.9302 O.3       1 <0>        -0.3129
     10 C8         -8.3218    5.8891    5.0738 C.3       1 <0>         0.0355
     11 O3         -6.5310    6.7185    2.3316 O.3       1 <0>        -0.3009
     12 C9         -5.6817    7.5245    1.5124 C.3       1 <0>         0.0232
     13 C10        -2.6581    3.8022    2.8952 C.3       1 <0>         0.1640
     14 N1         -2.5747    2.9676    1.6941 N.am      1 <0>        -0.7290
     15 C11        -1.3754    2.5395    1.2529 C.2       1 <0>         0.5005
     16 O4         -0.3651    2.8452    1.8502 O.2       1 <0>        -0.4966
     17 C12        -1.2896    1.6810    0.0173 C.3       1 <0>         0.1625
     18 H1         -2.1084    0.9615    0.0173 H         1 <0>         0.1119
     19 C13        -1.3885    2.5662   -1.2267 C.3       1 <0>        -0.1200
     20 C14        -1.4269    1.6858   -2.4774 C.3       1 <0>        -0.0791
     21 S1         -1.5442    2.7353   -3.9523 S.3       1 <0>        -0.2593
     22 C15        -1.5792    1.5549   -5.3292 C.3       1 <0>        -0.1214
     23 N2         -0.0111    0.9658    0.0074 N.am      1 <0>        -0.7363
     24 C16         1.1468    1.6555   -0.0000 C.2       1 <0>         0.7106
     25 O5          1.1303    2.8713    0.0067 O.2       1 <0>        -0.5615
     26 N3          2.3230    0.9976   -0.0148 N.am      1 <0>        -0.8690
     27 H2         -5.4445    1.9561    6.1686 H         1 <0>         0.0579
     28 H3         -6.9989    1.0889    6.1658 H         1 <0>         0.1043
     29 H4         -5.9398    1.0218    4.7368 H         1 <0>         0.0583
     30 H5         -4.4227    2.4249    4.4023 H         1 <0>         0.1373
     31 H6         -4.0558    5.9314    2.0034 H         1 <0>         0.1386
     32 H7         -7.8108    6.8459    4.9659 H         1 <0>         0.0450
     33 H8         -9.3954    6.0580    5.1571 H         1 <0>         0.0940
     34 H9         -7.9627    5.3846    5.9708 H         1 <0>         0.0448
     35 H10        -6.2412    8.3846    1.1447 H         1 <0>         0.1049
     36 H11        -4.8306    7.8689    2.0999 H         1 <0>         0.0584
     37 H12        -5.3254    6.9348    0.6678 H         1 <0>         0.0597
     38 H13        -2.2436    3.2591    3.7445 H         1 <0>         0.0789
     39 H14        -2.0917    4.7204    2.7397 H         1 <0>         0.0805
     40 H15        -3.3828    2.7231    1.2164 H         1 <0>         0.4012
     41 H16        -2.2982    3.1646   -1.1755 H         1 <0>         0.0848
     42 H17        -0.5219    3.2258   -1.2731 H         1 <0>         0.1083
     43 H18        -0.5173    1.0875   -2.5286 H         1 <0>         0.0814
     44 H19        -2.2935    1.0263   -2.4310 H         1 <0>         0.0807
     45 H20        -0.6664    0.9593   -5.3205 H         1 <0>         0.0756
     46 H21        -2.4426    0.8981   -5.2229 H         1 <0>         0.0764
     47 H22        -1.6498    2.0980   -6.2717 H         1 <0>         0.1031
     48 H23         0.0021   -0.0041    0.0020 H         1 <0>         0.4006
     49 H24         2.3361    0.0277   -0.0201 H         1 <0>         0.3938
     50 H25         3.1563    1.4940   -0.0201 H         1 <0>         0.4157
@<TRIPOS>BOND
     1    1    2 1
     2    1   27 1
     3    1   28 1
     4    1   29 1
     5    2    3 1
     6    3    8 ar
     7    3    4 ar
     8    4    5 ar
     9    4   30 1
    10    5    6 ar
    11    5   13 1
    12    6    7 ar
    13    6   31 1
    14    7    8 ar
    15    7   11 1
    16    8    9 1
    17    9   10 1
    18   10   32 1
    19   10   33 1
    20   10   34 1
    21   11   12 1
    22   12   35 1
    23   12   36 1
    24   12   37 1
    25   13   14 1
    26   13   38 1
    27   13   39 1
    28   14   15 am
    29   14   40 1
    30   15   16 2
    31   15   17 1
    32   17   18 1
    33   17   19 1
    34   17   23 1
    35   19   20 1
    36   19   41 1
    37   19   42 1
    38   20   21 1
    39   20   43 1
    40   20   44 1
    41   21   22 1
    42   22   45 1
    43   22   46 1
    44   22   47 1
    45   23   24 am
    46   23   48 1
    47   24   25 2
    48   24   26 am
    49   26   49 1
    50   26   50 1
@<TRIPOS>MOLECULE
ZINC42927614
   48    50     0     0     0
SMALL
USER_CHARGES

@<TRIPOS>ATOM
      1 C1         -0.0187    1.5245    0.0104 C.3       1 <0>        -0.1230
      2 C2          1.4145    2.0643   -0.0004 C.3       1 <0>        -0.1151
      3 C3          2.0602    1.7703    1.3612 C.3       1 <0>        -0.0381
      4 C4          1.7964    0.3387    1.7121 C.2       1 <0>        -0.1723
      5 C5          0.8945   -0.4931    1.1398 C.2       1 <0>        -0.0523
      6 C6          0.8320   -1.8455    1.6640 C.2       1 <0>        -0.2500
      7 C7         -0.0370   -2.8997    1.2230 C.2       1 <0>         0.5654
      8 O1         -0.8422   -2.7421    0.3216 O.2       1 <0>        -0.5101
      9 N1          0.0957   -4.0805    1.8725 N.am      1 <0>        -0.6320
     10 H1         -0.4720   -4.8207    1.6066 H         1 <0>         0.4182
     11 C8          0.9844   -4.2765    2.8760 C.2       1 <0>         0.4111
     12 N2          1.7963   -3.3365    3.3077 N.2       1 <0>        -0.4407
     13 C9          1.7230   -2.1474    2.7176 C.2       1 <0>         0.0877
     14 S1          2.5956   -0.6335    2.9641 S.3       1 <0>         0.1663
     15 C10         1.0458   -5.6342    3.5271 C.3       1 <0>        -0.0920
     16 S2          2.3093   -5.6241    4.8287 S.3       1 <0>        -0.0709
     17 C11         2.2575   -7.3071    5.5036 C.3       1 <0>        -0.1601
     18 C12         3.2732   -7.4363    6.6094 C.2       1 <0>         0.5329
     19 O2          3.9639   -6.4865    6.9124 O.2       1 <0>        -0.5141
     20 N3          3.4139   -8.6073    7.2617 N.am      1 <0>        -0.7275
     21 C13         4.4013   -8.7329    8.3367 C.3       1 <0>         0.1190
     22 C14         4.3577  -10.1524    8.9059 C.3       1 <0>        -0.1181
     23 C15         5.3888  -10.2835   10.0286 C.3       1 <0>        -0.1404
     24 C16         5.3458  -11.6817   10.5893 C.2       1 <0>         0.5164
     25 O3          4.5671  -12.4933   10.1356 O.2       1 <0>        -0.5440
     26 N4          6.1728  -12.0302   11.5949 N.am      1 <0>        -0.8571
     27 C17         0.0021   -0.0041    0.0020 C.3       1 <0>        -0.0591
     28 H2         -0.5309    1.8748    0.9065 H         1 <0>         0.0662
     29 H3         -0.5479    1.8843   -0.8719 H         1 <0>         0.0719
     30 H4          1.9844    1.5732   -0.7891 H         1 <0>         0.0693
     31 H5          1.3987    3.1404   -0.1730 H         1 <0>         0.0763
     32 H6          3.1352    1.9407    1.3012 H         1 <0>         0.0847
     33 H7          1.6253    2.4199    2.1208 H         1 <0>         0.0865
     34 H8          0.0759   -5.8718    3.9641 H         1 <0>         0.1217
     35 H9          1.3009   -6.3847    2.7789 H         1 <0>         0.1217
     36 H10         1.2622   -7.5095    5.8991 H         1 <0>         0.1129
     37 H11         2.4872   -8.0224    4.7139 H         1 <0>         0.1129
     38 H12         2.8615   -9.3668    7.0194 H         1 <0>         0.4037
     39 H13         5.3967   -8.5304    7.9412 H         1 <0>         0.0719
     40 H14         4.1716   -8.0175    9.1264 H         1 <0>         0.0719
     41 H15         3.3623  -10.3548    9.3014 H         1 <0>         0.0790
     42 H16         4.5873  -10.8677    8.1162 H         1 <0>         0.0790
     43 H17         6.3842  -10.0811    9.6332 H         1 <0>         0.1001
     44 H18         5.1592   -9.5682   10.8183 H         1 <0>         0.1001
     45 H19         6.7956  -11.3811   11.9577 H         1 <0>         0.4031
     46 H20         6.1451  -12.9301   11.9558 H         1 <0>         0.4028
     47 H21        -1.0099   -0.3836    0.1430 H         1 <0>         0.0856
     48 H22         0.3973   -0.3585   -0.9500 H         1 <0>         0.0788
@<TRIPOS>BOND
     1    1   27 1
     2    1    2 1
     3    1   28 1
     4    1   29 1
     5    2    3 1
     6    2   30 1
     7    2   31 1
     8    3    4 1
     9    3   32 1
    10    3   33 1
    11    4   14 1
    12    4    5 2
    13    5    6 1
    14    5   27 1
    15    6   13 2
    16    6    7 1
    17    7    8 2
    18    7    9 am
    19    9   10 1
    20    9   11 1
    21   11   12 2
    22   11   15 1
    23   12   13 1
    24   13   14 1
    25   15   16 1
    26   15   34 1
    27   15   35 1
    28   16   17 1
    29   17   18 1
    30   17   36 1
    31   17   37 1
    32   18   19 2
    33   18   20 am
    34   20   21 1
    35   20   38 1
    36   21   22 1
    37   21   39 1
    38   21   40 1
    39   22   23 1
    40   22   41 1
    41   22   42 1
    42   23   24 1
    43   23   43 1
    44   23   44 1
    45   24   25 2
    46   24   26 am
    47   26   45 1
    48   26   46 1
    49   27   47 1
    50   27   48 1
@<TRIPOS>MOLECULE
ZINC55161945
   49    51     0     0     0
SMALL
USER_CHARGES

@<TRIPOS>ATOM
      1 C1          0.3791    1.6640   -0.0614 C.3       1 <0>        -0.1921
      2 C2          0.2299    0.1416   -0.0320 C.3       1 <0>         0.1215
      3 H1         -0.8274   -0.1190    0.0162 H         1 <0>         0.1144
      4 C3          0.9494   -0.4177    1.1970 C.3       1 <0>        -0.2106
      5 H2          0.6687    0.0960    2.1165 H         1 <0>         0.1375
      6 C4          0.8652   -1.9402    1.3056 C.3       1 <0>         0.0820
      7 H3          0.3372   -2.4523    0.5012 H         1 <0>         0.1465
      8 C5          0.5744   -2.4681    2.7188 C.3       1 <0>        -0.0348
      9 H4         -0.0305   -3.3735    2.6695 H         1 <0>         0.0944
     10 C6          1.9367   -2.7749    3.2974 C.2       1 <0>        -0.2460
     11 C7          2.8798   -2.4281    2.3956 C.2       1 <0>         0.1854
     12 N1          2.3323   -1.8776    1.2079 N.am      1 <0>        -0.4866
     13 C8          2.4424   -0.5355    1.0117 C.2       1 <0>         0.5227
     14 O1          3.3497    0.2370    0.7842 O.2       1 <0>        -0.4055
     15 C9          4.2632   -2.6000    2.6066 C.2       1 <0>         0.4367
     16 O2          4.6978   -3.2246    3.7010 O.co2     1 <0>        -0.6521
     17 O3          5.1364   -2.1379    1.7118 O.co2     1 <0>        -0.6520
     18 S1          2.2435   -3.4700    4.8872 S.3       1 <0>         0.0319
     19 C10         1.5434   -5.1399    4.7786 C.3       1 <0>        -0.1910
     20 C11         1.6462   -5.8257    6.1424 C.3       1 <0>         0.0123
     21 N2          1.0792   -7.1781    6.0544 N.4       1 <0>        -0.6338
     22 C12        -0.1341   -1.3989    3.5528 C.3       1 <0>        -0.0865
     23 C13        -0.5183   -1.9777    4.8901 C.ar      1 <0>        -0.0361
     24 C14        -1.7455   -2.5936    5.0499 C.ar      1 <0>        -0.1096
     25 C15        -2.0978   -3.1245    6.2766 C.ar      1 <0>        -0.0745
     26 C16        -1.2228   -3.0400    7.3434 C.ar      1 <0>        -0.0525
     27 C17         0.0048   -2.4250    7.1834 C.ar      1 <0>        -0.0757
     28 C18         0.3589   -1.8978    5.9556 C.ar      1 <0>        -0.0492
     29 N3         -1.6005   -3.6077    8.6572 N.pl3     1 <0>         0.0319
     30 O4         -2.6743   -4.1453    8.7973 O.2       1 <0>        -0.1650
     31 O5         -0.8352   -3.5338    9.5902 O.3       1 <0>        -0.1609
     32 O6          0.8046   -0.4163   -1.2154 O.3       1 <0>        -0.5566
     33 H5          1.4364    1.9246   -0.1095 H         1 <0>         0.0675
     34 H6         -0.1335    2.0625   -0.9370 H         1 <0>         0.0720
     35 H7         -0.0593    2.0896    0.8413 H         1 <0>         0.0690
     36 H8          0.4965   -5.0764    4.4818 H         1 <0>         0.0923
     37 H9          2.0964   -5.7183    4.0384 H         1 <0>         0.1063
     38 H10         2.6931   -5.8893    6.4391 H         1 <0>         0.1490
     39 H11         1.0932   -5.2474    6.8825 H         1 <0>         0.1321
     40 H12         0.1101   -7.1192    5.7797 H         1 <0>         0.4320
     41 H13         1.5911   -7.7135    5.3692 H         1 <0>         0.4373
     42 H14         0.5355   -0.5519    3.7023 H         1 <0>         0.0877
     43 H15        -1.0307   -1.0654    3.0302 H         1 <0>         0.0958
     44 H16        -2.4291   -2.6596    4.2165 H         1 <0>         0.1452
     45 H17        -3.0569   -3.6051    6.4017 H         1 <0>         0.1489
     46 H18         0.6883   -2.3586    8.0170 H         1 <0>         0.1524
     47 H19         1.3195   -1.4206    5.8295 H         1 <0>         0.1472
     48 H20         1.7461   -0.2239   -1.3238 H         1 <0>         0.3804
     49 H21         1.1470   -7.6304    6.9538 H         1 <0>         0.4389
@<TRIPOS>BOND
     1    1    2 1
     2    1   33 1
     3    1   34 1
     4    1   35 1
     5    2    3 1
     6    2    4 1
     7    2   32 1
     8    4    5 1
     9    4   13 1
    10    4    6 1
    11    6    7 1
    12    6   12 1
    13    6    8 1
    14    8    9 1
    15    8   10 1
    16    8   22 1
    17   10   11 2
    18   10   18 1
    19   11   12 1
    20   11   15 1
    21   12   13 am
    22   13   14 2
    23   15   16 2
    24   15   17 1
    25   18   19 1
    26   19   20 1
    27   19   36 1
    28   19   37 1
    29   20   21 1
    30   20   38 1
    31   20   39 1
    32   21   40 1
    33   21   41 1
    34   21   49 1
    35   22   23 1
    36   22   42 1
    37   22   43 1
    38   23   28 ar
    39   23   24 ar
    40   24   25 ar
    41   24   44 1
    42   25   26 ar
    43   25   45 1
    44   26   27 ar
    45   26   29 1
    46   27   28 ar
    47   27   46 1
    48   28   47 1
    49   29   30 2
    50   29   31 1
    51   32   48 1
@<TRIPOS>MOLECULE
ZINC64885041
   49    50     0     0     0
SMALL
USER_CHARGES

@<TRIPOS>ATOM
      1 C1         -0.0187    1.5258    0.0104 C.3       1 <0>        -0.1536
      2 C2          0.0021   -0.0041    0.0020 C.3       1 <0>        -0.1221
      3 C3          0.7421   -0.5109    1.2415 C.3       1 <0>        -0.1328
      4 C4          0.7628   -2.0407    1.2331 C.3       1 <0>         0.1331
      5 N1          1.4714   -2.5260    2.4200 N.am      1 <0>        -0.7437
      6 C5          1.6145   -3.8504    2.6248 C.2       1 <0>         0.7122
      7 O1          1.1556   -4.6425    1.8245 O.2       1 <0>        -0.5670
      8 N2          2.2664   -4.2969    3.7167 N.am      1 <0>        -0.5340
      9 N3          2.7952   -3.3843    4.6388 N.am      1 <0>        -0.5311
     10 C6          3.4470   -3.8308    5.7307 C.2       1 <0>         0.5164
     11 O2          3.5758   -5.0226    5.9150 O.2       1 <0>        -0.5290
     12 C7          4.0159   -2.8491    6.7226 C.3       1 <0>        -0.1275
     13 C8          4.6996   -3.6112    7.8595 C.3       1 <0>        -0.1220
     14 C9          5.2771   -2.6145    8.8665 C.3       1 <0>         0.1156
     15 N4          5.9318   -3.3442    9.9552 N.pl3     1 <0>        -0.6677
     16 C10         6.5289   -2.6528   10.9866 C.2       1 <0>         0.5109
     17 N5          6.5109   -1.3580   11.0038 N.2       1 <0>        -0.8841
     18 S1          7.3257   -0.9077   12.3946 S.o2      1 <0>         2.5827
     19 O3          6.3814   -0.3189   13.2782 O.2       1 <0>        -0.9420
     20 O4          8.5340   -0.2713   12.0018 O.2       1 <0>        -0.9420
     21 C11         7.7402   -2.5072   13.0351 C.ar      1 <0>        -0.6165
     22 C12         7.1886   -3.3771   12.0839 C.ar      1 <0>        -0.1231
     23 C13         7.3419   -4.7543   12.3035 C.ar      1 <0>        -0.0525
     24 C14         8.0079   -5.2104   13.4193 C.ar      1 <0>        -0.0860
     25 C15         8.5375   -4.3274   14.3429 C.ar      1 <0>        -0.0911
     26 C16         8.4034   -2.9611   14.1371 C.ar      1 <0>         0.0050
     27 H1          1.0039    1.9031    0.0027 H         1 <0>         0.0549
     28 H2         -0.5459    1.8868   -0.8726 H         1 <0>         0.0575
     29 H3         -0.5289    1.8773    0.9072 H         1 <0>         0.0549
     30 H4         -1.0205   -0.3814    0.0098 H         1 <0>         0.0667
     31 H5          0.5123   -0.3556   -0.8948 H         1 <0>         0.0667
     32 H6          1.7647   -0.1336    1.2338 H         1 <0>         0.0702
     33 H7          0.2319   -0.1594    2.1383 H         1 <0>         0.0702
     34 H8         -0.2598   -2.4180    1.2409 H         1 <0>         0.0714
     35 H9          1.2730   -2.3923    0.3363 H         1 <0>         0.0714
     36 H10         1.8375   -1.8942    3.0584 H         1 <0>         0.3911
     37 H11         2.3694   -5.2501    3.8641 H         1 <0>         0.4439
     38 H12         2.6922   -2.4311    4.4914 H         1 <0>         0.4203
     39 H13         4.7444   -2.2098    6.2240 H         1 <0>         0.1084
     40 H14         3.2116   -2.2355    7.1286 H         1 <0>         0.1085
     41 H15         3.9711   -4.2505    8.3581 H         1 <0>         0.0841
     42 H16         5.5038   -4.2248    7.4535 H         1 <0>         0.0840
     43 H17         6.0057   -1.9752    8.3680 H         1 <0>         0.0869
     44 H18         4.4729   -2.0009    9.2725 H         1 <0>         0.0871
     45 H19         5.9450   -4.3141    9.9499 H         1 <0>         0.4161
     46 H20         6.9353   -5.4602   11.5944 H         1 <0>         0.1396
     47 H21         8.1180   -6.2733   13.5756 H         1 <0>         0.1450
     48 H22         9.0573   -4.6980   15.2140 H         1 <0>         0.1477
     49 H23         8.8121   -2.2617   14.8514 H         1 <0>         0.1455
@<TRIPOS>BOND
     1    1    2 1
     2    1   27 1
     3    1   28 1
     4    1   29 1
     5    2    3 1
     6    2   30 1
     7    2   31 1
     8    3    4 1
     9    3   32 1
    10    3   33 1
    11    4    5 1
    12    4   34 1
    13    4   35 1
    14    5    6 am
    15    5   36 1
    16    6    7 2
    17    6    8 am
    18    8    9 1
    19    8   37 1
    20    9   10 am
    21    9   38 1
    22   10   11 2
    23   10   12 1
    24   12   13 1
    25   12   39 1
    26   12   40 1
    27   13   14 1
    28   13   41 1
    29   13   42 1
    30   14   15 1
    31   14   43 1
    32   14   44 1
    33   15   16 1
    34   15   45 1
    35   16   22 1
    36   16   17 2
    37   17   18 1
    38   18   19 2
    39   18   20 2
    40   18   21 1
    41   21   26 ar
    42   21   22 ar
    43   22   23 ar
    44   23   24 ar
    45   23   46 1
    46   24   25 ar
    47   24   47 1
    48   25   26 ar
    49   25   48 1
    50   26   49 1
@<TRIPOS>MOLECULE
ZINC67270034
   51    53     0     0     0
SMALL
USER_CHARGES

@<TRIPOS>ATOM
      1 C1         -0.0166    1.3743    0.0096 C.ar      1 <0>        -0.1391
      2 C2          1.1702    2.0874    0.0021 C.ar      1 <0>        -0.0612
      3 C3          2.3828    1.4246   -0.0135 C.ar      1 <0>        -0.1637
      4 C4          2.4179    0.0418   -0.0213 C.ar      1 <0>         0.1610
      5 C5          1.2223   -0.6832   -0.0133 C.ar      1 <0>        -0.1775
      6 C6          0.0021   -0.0041    0.0020 C.ar      1 <0>        -0.0587
      7 C7          1.2498   -2.1599   -0.0220 C.2       1 <0>         0.5578
      8 O1          2.3137   -2.7480   -0.0362 O.2       1 <0>        -0.5185
      9 N1          0.0954   -2.8554   -0.0143 N.am      1 <0>        -0.7268
     10 C8          0.1226   -4.3201   -0.0229 C.3       1 <0>         0.1221
     11 C9         -1.3101   -4.8569   -0.0115 C.3       1 <0>        -0.1436
     12 C10        -1.2816   -6.3866   -0.0205 C.3       1 <0>         0.1210
     13 N2         -2.6535   -6.9006   -0.0095 N.am      1 <0>        -0.7328
     14 C11        -2.8750   -8.2300   -0.0148 C.2       1 <0>         0.5189
     15 O2         -1.9388   -9.0008   -0.0287 O.2       1 <0>        -0.5288
     16 C12        -4.2862   -8.7588   -0.0036 C.3       1 <0>        -0.1037
     17 C13        -5.0043   -8.2688    1.2557 C.3       1 <0>        -0.1192
     18 C14        -6.4413   -8.7964    1.2599 C.3       1 <0>        -0.1101
     19 C15        -6.4265  -10.3205    1.2236 C.3       1 <0>         0.1206
     20 C16        -5.6916  -10.8244   -0.0136 C.3       1 <0>        -0.1126
     21 C17        -4.2576  -10.2886   -0.0126 C.3       1 <0>        -0.1090
     22 C18        -5.7888  -10.8723    2.4778 C.2       1 <0>         0.5312
     23 O3         -4.6531  -10.6943    2.8630 O.2       1 <0>        -0.4495
     24 N3         -6.7495  -11.6046    3.0785 N.am      1 <0>        -0.6816
     25 C19        -7.8913  -11.5880    2.3799 C.2       1 <0>         0.7042
     26 O4         -8.9002  -12.1744    2.7197 O.2       1 <0>        -0.5394
     27 N4         -7.7964  -10.8487    1.2583 N.am      1 <0>        -0.7186
     28 F1          3.6033   -0.6060   -0.0370 F         1 <0>        -0.1132
     29 H1         -0.9601    1.8997    0.0260 H         1 <0>         0.1379
     30 H2          1.1482    3.1672    0.0081 H         1 <0>         0.1401
     31 H3          3.3046    1.9872   -0.0200 H         1 <0>         0.1448
     32 H4         -0.9252   -0.5577    0.0083 H         1 <0>         0.1347
     33 H5         -0.7535   -2.3862   -0.0030 H         1 <0>         0.3999
     34 H6          0.6341   -4.6687   -0.9201 H         1 <0>         0.0754
     35 H7          0.6521   -4.6789    0.8597 H         1 <0>         0.0756
     36 H8         -1.8215   -4.5083    0.8858 H         1 <0>         0.0785
     37 H9         -1.8396   -4.4982   -0.8941 H         1 <0>         0.0784
     38 H10        -0.7702   -6.7352   -0.9177 H         1 <0>         0.0733
     39 H11        -0.7521   -6.7454    0.8621 H         1 <0>         0.0737
     40 H12        -3.4023   -6.2842    0.0016 H         1 <0>         0.4001
     41 H13        -4.8156   -8.4001   -0.8863 H         1 <0>         0.1009
     42 H14        -4.4802   -8.6347    2.1386 H         1 <0>         0.0890
     43 H15        -5.0171   -7.1790    1.2660 H         1 <0>         0.0782
     44 H16        -6.9489   -8.4597    2.1638 H         1 <0>         0.0803
     45 H17        -6.9695   -8.4176    0.3849 H         1 <0>         0.0909
     46 H18        -5.6719  -11.9142   -0.0053 H         1 <0>         0.0803
     47 H19        -6.2080  -10.4779   -0.9088 H         1 <0>         0.0891
     48 H20        -3.7387  -10.6372   -0.9055 H         1 <0>         0.0831
     49 H21        -3.7361  -10.6477    0.8746 H         1 <0>         0.0907
     50 H22        -6.6279  -12.0842    3.9129 H         1 <0>         0.4339
     51 H23        -8.4949  -10.6951    0.6030 H         1 <0>         0.4419
@<TRIPOS>BOND
     1    1    6 ar
     2    1    2 ar
     3    1   29 1
     4    2    3 ar
     5    2   30 1
     6    3    4 ar
     7    3   31 1
     8    4    5 ar
     9    4   28 1
    10    5    6 ar
    11    5    7 1
    12    6   32 1
    13    7    8 2
    14    7    9 am
    15    9   10 1
    16    9   33 1
    17   10   11 1
    18   10   34 1
    19   10   35 1
    20   11   12 1
    21   11   36 1
    22   11   37 1
    23   12   13 1
    24   12   38 1
    25   12   39 1
    26   13   14 am
    27   13   40 1
    28   14   15 2
    29   14   16 1
    30   16   21 1
    31   16   17 1
    32   16   41 1
    33   17   18 1
    34   17   42 1
    35   17   43 1
    36   18   19 1
    37   18   44 1
    38   18   45 1
    39   19   27 1
    40   19   20 1
    41   19   22 1
    42   20   21 1
    43   20   46 1
    44   20   47 1
    45   21   48 1
    46   21   49 1
    47   22   23 2
    48   22   24 am
    49   24   25 am
    50   24   50 1
    51   25   26 2
    52   25   27 am
    53   27   51 1
@<TRIPOS>MOLECULE
ZINC07813474
   43    44     0     0     0
SMALL
USER_CHARGES
(5-methylisoxazol-3-yl)carbamoylmethyl 3-(4-chlorophenyl)-3-ureido-propanoate
@<TRIPOS>ATOM
      1 C1          1.4744    2.9166   -1.3453 C.3       1 <0>        -0.0765
      2 C2         -0.0120    3.0748   -1.1541 C.2       1 <0>        -0.0163
      3 C3         -0.9172    2.0819   -0.9994 C.2       1 <0>        -0.2296
      4 C4         -2.1554    2.7647   -0.8664 C.2       1 <0>         0.2449
      5 N1         -1.8787    4.0401   -0.9418 N.2       1 <0>        -0.3857
      6 O1         -0.6953    4.2275   -1.1047 O.3       1 <0>         0.1003
      7 N2         -3.4138    2.1899   -0.6874 N.am      1 <0>        -0.6284
      8 C5         -3.5397    0.8495   -0.6253 C.2       1 <0>         0.5248
      9 O2         -2.5590    0.1430   -0.7249 O.2       1 <0>        -0.4847
     10 C6         -4.8991    0.2285   -0.4320 C.3       1 <0>         0.0562
     11 O3         -4.7704   -1.2174   -0.3984 O.3       1 <0>        -0.3307
     12 C7         -5.8982   -1.9259   -0.2313 C.2       1 <0>         0.4729
     13 O4         -6.9579   -1.3567   -0.1170 O.2       1 <0>        -0.5050
     14 C8         -5.8427   -3.4312   -0.1864 C.3       1 <0>        -0.1387
     15 C9         -7.2541   -3.9879    0.0113 C.3       1 <0>         0.2259
     16 H1         -7.9101   -3.6002   -0.7682 H         1 <0>         0.1160
     17 C10        -7.2161   -5.4924   -0.0665 C.ar      1 <0>        -0.0811
     18 C11        -6.2138   -6.1222   -0.7805 C.ar      1 <0>        -0.0969
     19 C12        -6.1753   -7.5022   -0.8475 C.ar      1 <0>        -0.1051
     20 C13        -7.1465   -8.2529   -0.2092 C.ar      1 <0>        -0.0326
     21 C14        -8.1526   -7.6218    0.5004 C.ar      1 <0>        -0.1073
     22 C15        -8.1869   -6.2419    0.5714 C.ar      1 <0>        -0.0875
     23 Cl1        -7.1031   -9.9860   -0.2993 Cl        1 <0>        -0.0699
     24 N3         -7.7608   -3.5794    1.3238 N.am      1 <0>        -0.7375
     25 C16        -7.1502   -4.0097    2.4456 C.2       1 <0>         0.7038
     26 O5         -6.1249   -4.6586    2.3690 O.2       1 <0>        -0.5806
     27 N4         -7.6762   -3.7206    3.6523 N.am      1 <0>        -0.8669
     28 H2          1.6980    2.8427   -2.4095 H         1 <0>         0.0914
     29 H3          1.9888    3.7809   -0.9251 H         1 <0>         0.0864
     30 H4          1.8115    2.0119   -0.8394 H         1 <0>         0.0948
     31 H5         -0.7401    1.0166   -0.9851 H         1 <0>         0.1910
     32 H6         -4.1982    2.7549   -0.6078 H         1 <0>         0.4222
     33 H7         -5.3275    0.5771    0.5078 H         1 <0>         0.1099
     34 H8         -5.5507    0.5162   -1.2571 H         1 <0>         0.1117
     35 H9         -5.4315   -3.8077   -1.1230 H         1 <0>         0.1219
     36 H10        -5.2084   -3.7468    0.6419 H         1 <0>         0.1373
     37 H11        -5.4583   -5.5360   -1.2823 H         1 <0>         0.1356
     38 H12        -5.3897   -7.9943   -1.4016 H         1 <0>         0.1355
     39 H13        -8.9112   -8.2073    0.9986 H         1 <0>         0.1324
     40 H14        -8.9724   -5.7491    1.1251 H         1 <0>         0.1271
     41 H15        -8.5357   -2.9992    1.3854 H         1 <0>         0.4054
     42 H16        -8.4942   -3.2029    3.7135 H         1 <0>         0.3973
     43 H17        -7.2368   -4.0303    4.4597 H         1 <0>         0.4162
@<TRIPOS>BOND
     1    1    2 1
     2    1   28 1
     3    1   29 1
     4    1   30 1
     5    2    6 1
     6    2    3 2
     7    3    4 1
     8    3   31 1
     9    4    5 2
    10    4    7 1
    11    5    6 1
    12    7    8 am
    13    7   32 1
    14    8    9 2
    15    8   10 1
    16   10   11 1
    17   10   33 1
    18   10   34 1
    19   11   12 1
    20   12   13 2
    21   12   14 1
    22   14   15 1
    23   14   35 1
    24   14   36 1
    25   15   16 1
    26   15   17 1
    27   15   24 1
    28   17   22 ar
    29   17   18 ar
    30   18   19 ar
    31   18   37 1
    32   19   20 ar
    33   19   38 1
    34   20   21 ar
    35   20   23 1
    36   21   22 ar
    37   21   39 1
    38   22   40 1
    39   24   25 am
    40   24   41 1
    41   25   26 2
    42   25   27 am
    43   27   42 1
    44   27   43 1
@<TRIPOS>MOLECULE
ZINC23357145
   48    49     0     0     0
SMALL
USER_CHARGES
(2R)-2-[[4-amino-5-(p-tolyl)-1,2,4-triazol-3-yl]sulfanyl]-N-(2-methoxyethylcarbamoyl)propanamide
@<TRIPOS>ATOM
      1 C1          0.8250   -8.1868    4.9791 C.3       1 <0>        -0.1223
      2 C2          0.5845   -6.8071    4.4225 C.ar      1 <0>        -0.0712
      3 C3          0.1435   -6.6573    3.1197 C.ar      1 <0>        -0.1119
      4 C4         -0.0782   -5.3971    2.6038 C.ar      1 <0>        -0.0710
      5 C5          0.1436   -4.2719    3.3994 C.ar      1 <0>        -0.0151
      6 C6          0.5936   -4.4299    4.7111 C.ar      1 <0>        -0.1125
      7 C7          0.8063   -5.6959    5.2164 C.ar      1 <0>        -0.1126
      8 C8         -0.0914   -2.9184    2.8530 C.2       1 <0>         0.2007
      9 N1         -0.7554   -2.6228    1.7600 N.2       1 <0>        -0.2551
     10 N2         -0.7645   -1.3500    1.5829 N.2       1 <0>        -0.2756
     11 C9         -0.1064   -0.7547    2.5527 C.2       1 <0>         0.1186
     12 N3          0.3497   -1.7315    3.3911 N.pl3     1 <0>        -0.2060
     13 N4          1.0879   -1.5646    4.5283 N.3       1 <0>        -0.7663
     14 S1          0.1466    0.9796    2.7332 S.3       1 <0>         0.0936
     15 C10        -0.7288    1.5792    1.2668 C.3       1 <0>        -0.1084
     16 H1         -1.7832    1.3014    1.1219 H         1 <0>         0.1301
     17 C11        -0.0127    1.0858    0.0080 C.3       1 <0>        -0.1515
     18 C12        -0.7493    3.0861    1.2751 C.2       1 <0>         0.5385
     19 O1          0.1082    3.7007    1.8725 O.2       1 <0>        -0.4553
     20 N5         -1.7208    3.7505    0.6184 N.am      1 <0>        -0.6980
     21 C13        -1.7391    5.0981    0.6258 C.2       1 <0>         0.6983
     22 O2         -0.8795    5.7142    1.2247 O.2       1 <0>        -0.5348
     23 N6         -2.7106    5.7625   -0.0308 N.am      1 <0>        -0.7418
     24 C14        -2.7304    7.2273   -0.0228 C.3       1 <0>         0.1401
     25 C15        -3.9267    7.7256   -0.8361 C.3       1 <0>         0.0467
     26 O3         -5.1391    7.3276   -0.1929 O.3       1 <0>        -0.3895
     27 C16        -6.3232    7.7452   -0.8751 C.3       1 <0>         0.0273
     28 H2          0.5968   -8.9379    4.2085 H         1 <0>         0.0697
     29 H3          0.1757   -8.3482    5.8522 H         1 <0>         0.0742
     30 H4          1.8780   -8.2812    5.2828 H         1 <0>         0.0740
     31 H5         -0.0281   -7.5288    2.5053 H         1 <0>         0.1332
     32 H6         -0.4221   -5.2815    1.5866 H         1 <0>         0.1395
     33 H7          0.7710   -3.5631    5.3305 H         1 <0>         0.1223
     34 H8          1.1509   -5.8197    6.2324 H         1 <0>         0.1313
     35 H9          1.3780   -0.5542    4.8524 H         1 <0>         0.4454
     36 H10         1.3922   -2.4406    5.1200 H         1 <0>         0.4446
     37 H11        -0.5447    1.4502   -0.8831 H         1 <0>         0.0742
     38 H12         0.0022   -0.0141    0.0020 H         1 <0>         0.0962
     39 H13         1.0193    1.4665    0.0002 H         1 <0>         0.0715
     40 H14        -2.4988    3.1929    0.0764 H         1 <0>         0.4363
     41 H15        -3.4887    5.2049   -0.5727 H         1 <0>         0.4222
     42 H16        -2.8158    7.5872    1.0132 H         1 <0>         0.0779
     43 H17        -1.7998    7.6090   -0.4680 H         1 <0>         0.0848
     44 H18        -3.8915    8.8229   -0.9053 H         1 <0>         0.0706
     45 H19        -3.8887    7.2930   -1.8468 H         1 <0>         0.0597
     46 H20        -7.2075    7.4012   -0.3187 H         1 <0>         0.0894
     47 H21        -6.3354    7.3130   -1.8866 H         1 <0>         0.0437
     48 H22        -6.3382    8.8429   -0.9452 H         1 <0>         0.0441
@<TRIPOS>BOND
     1    1    2 1
     2    1   28 1
     3    1   29 1
     4    1   30 1
     5    2    7 ar
     6    2    3 ar
     7    3    4 ar
     8    3   31 1
     9    4    5 ar
    10    4   32 1
    11    5    6 ar
    12    5    8 1
    13    6    7 ar
    14    6   33 1
    15    7   34 1
    16    8   12 1
    17    8    9 2
    18    9   10 1
    19   10   11 2
    20   11   12 1
    21   11   14 1
    22   12   13 1
    23   13   35 1
    24   13   36 1
    25   14   15 1
    26   15   16 1
    27   15   17 1
    28   15   18 1
    29   17   37 1
    30   17   38 1
    31   17   39 1
    32   18   19 2
    33   18   20 am
    34   20   21 am
    35   20   40 1
    36   21   22 2
    37   21   23 am
    38   23   24 1
    39   23   41 1
    40   24   25 1
    41   24   42 1
    42   24   43 1
    43   25   26 1
    44   25   44 1
    45   25   45 1
    46   26   27 1
    47   27   46 1
    48   27   47 1
    49   27   48 1
@<TRIPOS>MOLECULE
ZINC41186013
   50    51     0     0     0
SMALL
USER_CHARGES

@<TRIPOS>ATOM
      1 C1          1.0833   -0.4597    0.7508 C.ar      1 <0>        -0.0843
      2 C2          2.2725    0.2423    0.7389 C.ar      1 <0>        -0.1157
      3 C3          2.3810    1.4092   -0.0072 C.ar      1 <0>         0.1393
      4 C4          1.2920    1.8657   -0.7392 C.ar      1 <0>        -0.1353
      5 C5          0.1058    1.1588   -0.7228 C.ar      1 <0>        -0.0842
      6 C6          0.0012   -0.0023    0.0211 C.ar      1 <0>        -0.0797
      7 C7         -1.2949   -0.7710    0.0366 C.3       1 <0>        -0.1029
      8 C8         -2.1626   -0.2702    1.1623 C.2       1 <0>         0.5158
      9 O1         -1.7674    0.6231    1.8813 O.2       1 <0>        -0.5323
     10 N1         -3.3778   -0.8149    1.3701 N.am      1 <0>        -0.8586
     11 N2          3.5826    2.1222   -0.0212 N.am      1 <0>        -0.6424
     12 C9          4.7566    1.4660    0.0659 C.2       1 <0>         0.5082
     13 O2          4.7754    0.2524    0.0598 O.2       1 <0>        -0.4982
     14 C10         6.0344    2.2322    0.1698 C.2       1 <0>         0.5105
     15 O3          6.0156    3.4456    0.1759 O.2       1 <0>        -0.5124
     16 N3          7.2084    1.5760    0.2569 N.am      1 <0>        -0.6991
     17 C11         8.4618    2.3276    0.3588 C.3       1 <0>         0.1172
     18 C12         9.6366    1.3510    0.4439 C.3       1 <0>        -0.1307
     19 C13        10.9456    2.1359    0.5504 C.3       1 <0>        -0.1161
     20 C14        12.1203    1.1594    0.6355 C.3       1 <0>         0.0579
     21 O4         13.3429    1.8924    0.7350 O.3       1 <0>        -0.3112
     22 C15        14.4910    1.1693    0.8196 C.ar      1 <0>         0.1217
     23 C16        14.4413   -0.2167    0.8014 C.ar      1 <0>        -0.1816
     24 C17        15.6087   -0.9503    0.8875 C.ar      1 <0>        -0.1123
     25 C18        16.8279   -0.3026    0.9924 C.ar      1 <0>         0.0597
     26 C19        16.8790    1.0808    1.0111 C.ar      1 <0>        -0.1121
     27 C20        15.7136    1.8170    0.9185 C.ar      1 <0>        -0.1231
     28 F1         17.9688   -1.0213    1.0770 F         1 <0>        -0.1399
     29 H1          0.9996   -1.3692    1.3270 H         1 <0>         0.1261
     30 H2          3.1170   -0.1152    1.3093 H         1 <0>         0.1349
     31 H3          1.3729    2.7727   -1.3200 H         1 <0>         0.1298
     32 H4         -0.7413    1.5134   -1.2912 H         1 <0>         0.1273
     33 H5         -1.8127   -0.6293   -0.9120 H         1 <0>         0.1056
     34 H6         -1.0869   -1.8310    0.1821 H         1 <0>         0.1055
     35 H7         -3.6938   -1.5292    0.7951 H         1 <0>         0.4020
     36 H8         -3.9363   -0.4925    2.0947 H         1 <0>         0.4026
     37 H9          3.5718    3.0894   -0.0935 H         1 <0>         0.4239
     38 H10         7.2235    0.6062    0.2520 H         1 <0>         0.4147
     39 H11         8.5785    2.9605   -0.5209 H         1 <0>         0.0788
     40 H12         8.4408    2.9495    1.2537 H         1 <0>         0.0788
     41 H13         9.5199    0.7181    1.3236 H         1 <0>         0.0775
     42 H14         9.6576    0.7291   -0.4510 H         1 <0>         0.0776
     43 H15        11.0623    2.7689   -0.3293 H         1 <0>         0.0812
     44 H16        10.9245    2.7579    1.4453 H         1 <0>         0.0812
     45 H17        12.0036    0.5264    1.5152 H         1 <0>         0.0658
     46 H18        12.1413    0.5374   -0.2594 H         1 <0>         0.0658
     47 H19        13.4903   -0.7222    0.7203 H         1 <0>         0.1377
     48 H20        15.5703   -2.0296    0.8733 H         1 <0>         0.1389
     49 H21        17.8306    1.5848    1.0934 H         1 <0>         0.1437
     50 H22        15.7540    2.8962    0.9283 H         1 <0>         0.1424
@<TRIPOS>BOND
     1    1    6 ar
     2    1    2 ar
     3    1   29 1
     4    2    3 ar
     5    2   30 1
     6    3    4 ar
     7    3   11 1
     8    4    5 ar
     9    4   31 1
    10    5    6 ar
    11    5   32 1
    12    6    7 1
    13    7    8 1
    14    7   33 1
    15    7   34 1
    16    8    9 2
    17    8   10 am
    18   10   35 1
    19   10   36 1
    20   11   12 am
    21   11   37 1
    22   12   13 2
    23   12   14 1
    24   14   15 2
    25   14   16 am
    26   16   17 1
    27   16   38 1
    28   17   18 1
    29   17   39 1
    30   17   40 1
    31   18   19 1
    32   18   41 1
    33   18   42 1
    34   19   20 1
    35   19   43 1
    36   19   44 1
    37   20   21 1
    38   20   45 1
    39   20   46 1
    40   21   22 1
    41   22   27 ar
    42   22   23 ar
    43   23   24 ar
    44   23   47 1
    45   24   25 ar
    46   24   48 1
    47   25   26 ar
    48   25   28 1
    49   26   27 ar
    50   26   49 1
    51   27   50 1
@<TRIPOS>MOLECULE
ZINC48885436
   50    52     0     0     0
SMALL
USER_CHARGES

@<TRIPOS>ATOM
      1 C1         -0.0068    1.3587   -0.0123 C.ar      1 <0>        -0.1470
      2 C2          1.1813    2.0768   -0.0224 C.ar      1 <0>        -0.0984
      3 C3          2.3955    1.4262   -0.0311 C.ar      1 <0>        -0.1304
      4 C4          2.4342    0.0355   -0.0293 C.ar      1 <0>         0.0969
      5 C5          1.2275   -0.6875   -0.0186 C.ar      1 <0>        -0.1107
      6 C6          0.0080   -0.0075   -0.0105 C.ar      1 <0>        -0.0707
      7 C7          1.6039   -2.1032   -0.0195 C.2       1 <0>        -0.2021
      8 C8          2.9453   -2.1526   -0.0301 C.2       1 <0>         0.0500
      9 N1          3.4587   -0.8843   -0.0360 N.pl3     1 <0>        -0.4853
     10 C9          4.8860   -0.5542   -0.0474 C.3       1 <0>         0.1157
     11 C10         5.3656   -0.3151    1.3857 C.3       1 <0>        -0.1530
     12 C11         6.8562    0.0297    1.3738 C.3       1 <0>         0.1205
     13 N2          7.3154    0.2587    2.7460 N.am      1 <0>        -0.6982
     14 C12         8.6034    0.5785    2.9810 C.2       1 <0>         0.5123
     15 O1          9.3828    0.6767    2.0559 O.2       1 <0>        -0.5133
     16 C13         9.0716    0.8119    4.3799 C.2       1 <0>         0.5075
     17 O2          8.2921    0.7137    5.3051 O.2       1 <0>        -0.4960
     18 N3         10.3596    1.1317    4.6150 N.am      1 <0>        -0.6422
     19 C14        10.7764    1.4445    5.9114 C.ar      1 <0>         0.1352
     20 C15        11.7515    2.4130    6.1146 C.ar      1 <0>        -0.1337
     21 C16        12.1611    2.7197    7.3973 C.ar      1 <0>        -0.0858
     22 C17        11.6018    2.0640    8.4788 C.ar      1 <0>        -0.0784
     23 C18        10.6313    1.0990    8.2801 C.ar      1 <0>        -0.0865
     24 C19        10.2126    0.7918    7.0005 C.ar      1 <0>        -0.1149
     25 C20        12.0514    2.4013    9.8771 C.3       1 <0>        -0.1029
     26 C21        11.1930    3.5114   10.4266 C.2       1 <0>         0.5150
     27 O3         10.3038    3.9822    9.7495 O.2       1 <0>        -0.5311
     28 N4         11.4136    3.9809   11.6706 N.am      1 <0>        -0.8588
     29 H1         -0.9503    1.8842   -0.0014 H         1 <0>         0.1222
     30 H2          1.1534    3.1564   -0.0238 H         1 <0>         0.1245
     31 H3          3.3142    1.9938   -0.0396 H         1 <0>         0.1171
     32 H4         -0.9202   -0.5595   -0.0023 H         1 <0>         0.1218
     33 H5          0.9299   -2.9471   -0.0126 H         1 <0>         0.1469
     34 H6          3.5323   -3.0592   -0.0337 H         1 <0>         0.1680
     35 H7          5.4465   -1.3803   -0.4850 H         1 <0>         0.0960
     36 H8          5.0458    0.3471   -0.6392 H         1 <0>         0.0905
     37 H9          4.8051    0.5110    1.8233 H         1 <0>         0.0809
     38 H10         5.2058   -1.2164    1.9774 H         1 <0>         0.0814
     39 H11         7.4167   -0.7964    0.9361 H         1 <0>         0.0799
     40 H12         7.0160    0.9310    0.7820 H         1 <0>         0.0794
     41 H13         6.6925    0.1801    3.4853 H         1 <0>         0.4158
     42 H14        10.9973    1.1447    3.8841 H         1 <0>         0.4235
     43 H15        12.1890    2.9252    5.2704 H         1 <0>         0.1297
     44 H16        12.9194    3.4722    7.5559 H         1 <0>         0.1272
     45 H17        10.1971    0.5884    9.1270 H         1 <0>         0.1260
     46 H18         9.4511    0.0416    6.8464 H         1 <0>         0.1397
     47 H19        11.9563    1.5203   10.5118 H         1 <0>         0.1056
     48 H20        13.0925    2.7234    9.8562 H         1 <0>         0.1056
     49 H21        12.1248    3.6044   12.2121 H         1 <0>         0.4018
     50 H22        10.8611    4.6954   12.0243 H         1 <0>         0.4026
@<TRIPOS>BOND
     1    1    6 ar
     2    1    2 ar
     3    1   29 1
     4    2    3 ar
     5    2   30 1
     6    3    4 ar
     7    3   31 1
     8    4    9 1
     9    4    5 ar
    10    5    6 ar
    11    5    7 1
    12    6   32 1
    13    7    8 2
    14    7   33 1
    15    8    9 1
    16    8   34 1
    17    9   10 1
    18   10   11 1
    19   10   35 1
    20   10   36 1
    21   11   12 1
    22   11   37 1
    23   11   38 1
    24   12   13 1
    25   12   39 1
    26   12   40 1
    27   13   14 am
    28   13   41 1
    29   14   15 2
    30   14   16 1
    31   16   17 2
    32   16   18 am
    33   18   19 1
    34   18   42 1
    35   19   24 ar
    36   19   20 ar
    37   20   21 ar
    38   20   43 1
    39   21   22 ar
    40   21   44 1
    41   22   23 ar
    42   22   25 1
    43   23   24 ar
    44   23   45 1
    45   24   46 1
    46   25   26 1
    47   25   47 1
    48   25   48 1
    49   26   27 2
    50   26   28 am
    51   28   49 1
    52   28   50 1
@<TRIPOS>MOLECULE
ZINC64940771
   44    46     0     0     0
SMALL
USER_CHARGES

@<TRIPOS>ATOM
      1 C1         -0.0173    1.4248    0.0099 C.3       1 <0>         0.0314
      2 O1          0.0021   -0.0041    0.0020 O.3       1 <0>        -0.3925
      3 C2         -1.2953   -0.6030    0.0112 C.3       1 <0>         0.0642
      4 C3         -1.1538   -2.1264    0.0017 C.3       1 <0>        -0.1345
      5 C4         -2.5429   -2.7677    0.0115 C.3       1 <0>         0.1362
      6 N1         -2.4075   -4.2264    0.0023 N.am      1 <0>        -0.7350
      7 C5         -3.5073   -5.0054    0.0087 C.2       1 <0>         0.7166
      8 O2         -4.6119   -4.4975    0.0219 O.2       1 <0>        -0.5657
      9 N2         -3.3827   -6.3473    0.0003 N.am      1 <0>        -0.5243
     10 N3         -2.1099   -6.9325   -0.0150 N.pl3     1 <0>        -0.9144
     11 S1         -1.6900   -8.0321    1.1499 S.o2      1 <0>         2.7005
     12 O3         -0.4155   -8.5437    0.7850 O.2       1 <0>        -0.9342
     13 O4         -1.9297   -7.4072    2.4034 O.2       1 <0>        -0.9294
     14 C6         -2.8245   -9.3751    1.0317 C.ar      1 <0>        -0.6953
     15 C7         -2.3951  -10.6243    0.6740 C.ar      1 <0>         0.0489
     16 C8         -3.2464  -11.7232    0.5645 C.ar      1 <0>        -0.1515
     17 C9         -4.5970  -11.5795    0.8229 C.ar      1 <0>         0.2228
     18 C10        -5.0186  -10.3043    1.1855 C.ar      1 <0>        -0.1295
     19 C11        -4.1890   -9.1890    1.3081 C.ar      1 <0>         0.0520
     20 C12        -4.7919   -7.9792    1.6928 C.ar      1 <0>        -0.1227
     21 C13        -6.1405   -7.9566    1.9290 C.ar      1 <0>        -0.0849
     22 C14        -6.9548   -9.0822    1.8069 C.ar      1 <0>        -0.0110
     23 C15        -6.4016  -10.2903    1.4204 C.ar      1 <0>        -0.1444
     24 C16        -6.8234  -11.6743    1.1738 C.2       1 <0>         0.5786
     25 O5         -7.9585  -12.1032    1.2648 O.2       1 <0>        -0.4689
     26 N4         -5.7234  -12.3926    0.8250 N.am      1 <0>        -0.6545
     27 H1          1.0053    1.8021    0.0021 H         1 <0>         0.0879
     28 H2         -0.5445    1.7859   -0.8732 H         1 <0>         0.0428
     29 H3         -0.5275    1.7763    0.9067 H         1 <0>         0.0432
     30 H4         -1.8320   -0.2936    0.9080 H         1 <0>         0.0548
     31 H5         -1.8490   -0.2840   -0.8718 H         1 <0>         0.0542
     32 H6         -0.6171   -2.4359   -0.8952 H         1 <0>         0.0801
     33 H7         -0.6001   -2.4454    0.8847 H         1 <0>         0.0814
     34 H8         -3.0796   -2.4582    0.9083 H         1 <0>         0.0753
     35 H9         -3.0966   -2.4487   -0.8716 H         1 <0>         0.0744
     36 H10        -1.5262   -4.6316   -0.0082 H         1 <0>         0.4002
     37 H11        -4.1742   -6.9079    0.0048 H         1 <0>         0.4317
     38 H12        -1.4745   -6.6937   -0.7080 H         1 <0>         0.4266
     39 H13        -1.3449  -10.7660    0.4658 H         1 <0>         0.1566
     40 H14        -2.8508  -12.6864    0.2776 H         1 <0>         0.1486
     41 H15        -4.2010   -7.0816    1.8008 H         1 <0>         0.1564
     42 H16        -6.5953   -7.0226    2.2242 H         1 <0>         0.1494
     43 H17        -8.0139   -9.0094    2.0055 H         1 <0>         0.1485
     44 H18        -5.7247  -13.3381    0.6084 H         1 <0>         0.4295
@<TRIPOS>BOND
     1    1    2 1
     2    1   27 1
     3    1   28 1
     4    1   29 1
     5    2    3 1
     6    3    4 1
     7    3   30 1
     8    3   31 1
     9    4    5 1
    10    4   32 1
    11    4   33 1
    12    5    6 1
    13    5   34 1
    14    5   35 1
    15    6    7 am
    16    6   36 1
    17    7    8 2
    18    7    9 am
    19    9   10 1
    20    9   37 1
    21   10   11 1
    22   10   38 1
    23   11   12 2
    24   11   13 2
    25   11   14 1
    26   14   19 ar
    27   14   15 ar
    28   15   16 ar
    29   15   39 1
    30   16   17 ar
    31   16   40 1
    32   17   26 1
    33   17   18 ar
    34   18   23 ar
    35   18   19 ar
    36   19   20 ar
    37   20   21 ar
    38   20   41 1
    39   21   22 ar
    40   21   42 1
    41   22   23 ar
    42   22   43 1
    43   23   24 1
    44   24   25 2
    45   24   26 am
    46   26   44 1
@<TRIPOS>MOLECULE
ZINC05650269
   40    42     0     0     0
SMALL
USER_CHARGES
3-(1H-indol-3-yl)-2-(4-nitrobenzoyl)amino-propanoic acid
@<TRIPOS>ATOM
      1 C1         -0.7895   -4.5681   -4.5597 C.ar      1 <0>        -0.1527
      2 C2         -1.1213   -3.8314   -5.6888 C.ar      1 <0>        -0.0995
      3 C3         -1.8626   -2.6755   -5.5806 C.ar      1 <0>        -0.1388
      4 C4         -2.2843   -2.2397   -4.3285 C.ar      1 <0>         0.0962
      5 C5         -1.9401   -2.9863   -3.1870 C.ar      1 <0>        -0.0998
      6 C6         -1.1931   -4.1584   -3.3204 C.ar      1 <0>        -0.0604
      7 C7         -2.5277   -2.2776   -2.0476 C.2       1 <0>        -0.1470
      8 C8         -3.1521   -1.1952   -2.5383 C.2       1 <0>         0.0361
      9 N1         -3.0173   -1.1561   -3.8993 N.pl3     1 <0>        -0.5976
     10 H1         -3.3840   -0.4677   -4.4760 H         1 <0>         0.4118
     11 C9         -2.4420   -2.6831   -0.5987 C.3       1 <0>        -0.0401
     12 C10        -1.1360   -2.1586    0.0013 C.3       1 <0>         0.1094
     13 H2         -0.2950   -2.5073   -0.5981 H         1 <0>         0.0935
     14 C11        -0.9918   -2.6668    1.4127 C.2       1 <0>         0.4587
     15 O1         -0.9137   -1.8855    2.3311 O.co2     1 <0>        -0.6285
     16 N2         -1.1558   -0.6938    0.0094 N.am      1 <0>        -0.6810
     17 H3         -2.0023   -0.2203    0.0200 H         1 <0>         0.3892
     18 C12         0.0021   -0.0041    0.0020 C.2       1 <0>         0.5507
     19 O2          1.0628   -0.5974   -0.0113 O.2       1 <0>        -0.5252
     20 C13        -0.0180    1.4742    0.0101 C.ar      1 <0>        -0.0576
     21 C14        -1.2344    2.1587    0.0196 C.ar      1 <0>        -0.0901
     22 C15        -1.2460    3.5382    0.0320 C.ar      1 <0>        -0.0594
     23 C16        -0.0555    4.2431    0.0244 C.ar      1 <0>        -0.0362
     24 C17         1.1536    3.5708    0.0097 C.ar      1 <0>        -0.0594
     25 C18         1.1794    2.1915    0.0026 C.ar      1 <0>        -0.0651
     26 N3         -0.0756    5.7231    0.0316 N.pl3     1 <0>         0.0294
     27 O3          0.9708    6.3464    0.0245 O.2       1 <0>        -0.1603
     28 O4         -1.1386    6.3177    0.0445 O.3       1 <0>        -0.1614
     29 H4         -0.2072   -5.4719   -4.6619 H         1 <0>         0.1207
     30 H5         -0.7946   -4.1679   -6.6616 H         1 <0>         0.1208
     31 H6         -2.1154   -2.1093   -6.4649 H         1 <0>         0.1147
     32 H7         -0.9309   -4.7364   -2.4466 H         1 <0>         0.1276
     33 H8         -3.6822   -0.4638   -1.9464 H         1 <0>         0.1647
     34 H9         -2.4656   -3.7702   -0.5237 H         1 <0>         0.0988
     35 H10        -3.2870   -2.2629   -0.0532 H         1 <0>         0.0701
     36 H11        -2.1643    1.6095    0.0214 H         1 <0>         0.1498
     37 H12        -2.1865    4.0690    0.0438 H         1 <0>         0.1577
     38 H13         2.0794    4.1270    0.0042 H         1 <0>         0.1587
     39 H14         2.1239    1.6679   -0.0085 H         1 <0>         0.1613
     40 O5         -0.9502   -3.9874    1.6496 O.co2     1 <0>        -0.7598
@<TRIPOS>BOND
     1    1    6 ar
     2    1    2 ar
     3    1   29 1
     4    2    3 ar
     5    2   30 1
     6    3    4 ar
     7    3   31 1
     8    4    9 1
     9    4    5 ar
    10    5    6 ar
    11    5    7 1
    12    6   32 1
    13    7    8 2
    14    7   11 1
    15    8    9 1
    16    8   33 1
    17    9   10 1
    18   11   12 1
    19   11   34 1
    20   11   35 1
    21   12   13 1
    22   12   14 1
    23   12   16 1
    24   14   15 2
    25   14   40 1
    26   16   17 1
    27   16   18 am
    28   18   19 2
    29   18   20 1
    30   20   25 ar
    31   20   21 ar
    32   21   22 ar
    33   21   36 1
    34   22   23 ar
    35   22   37 1
    36   23   24 ar
    37   23   26 1
    38   24   25 ar
    39   24   38 1
    40   25   39 1
    41   26   27 2
    42   26   28 1
@<TRIPOS>MOLECULE
ZINC31958542
   42    43     0     0     0
SMALL
USER_CHARGES
3-[[(2S)-3-methyl-2-[(6-methylthieno[2,3-d]pyrimidin-4-yl)amino]butanoyl]amino]propanoic acid
@<TRIPOS>ATOM
      1 C1         -1.1687   -0.9530    0.0074 C.3       1 <0>        -0.0730
      2 C2          0.0021   -0.0041    0.0020 C.2       1 <0>        -0.1450
      3 C3          1.3103   -0.2996   -0.0121 C.2       1 <0>        -0.1123
      4 C4          2.2812    0.7806   -0.0155 C.ar      1 <0>        -0.2530
      5 C5          3.7025    0.7262   -0.0289 C.ar      1 <0>         0.5007
      6 N1          4.3912    1.8558   -0.0291 N.ar      1 <0>        -0.5870
      7 C6          3.8028    3.0386   -0.0172 C.ar      1 <0>         0.3624
      8 N2          2.4891    3.1534   -0.0044 N.ar      1 <0>        -0.5333
      9 C7          1.7255    2.0785   -0.0033 C.ar      1 <0>         0.1529
     10 S1         -0.0221    1.7787    0.0118 S.3       1 <0>         0.0881
     11 N3          4.3564   -0.4926   -0.0412 N.pl3     1 <0>        -0.6866
     12 C8          5.8207   -0.5381   -0.0550 C.3       1 <0>         0.1392
     13 H1          6.1730    0.3055   -0.6667 H         1 <0>         0.1176
     14 C9          6.3476   -0.4357    1.3777 C.3       1 <0>        -0.0977
     15 C10         5.8842    0.8838    1.9984 C.3       1 <0>        -0.1344
     16 C11         5.8087   -1.6051    2.2042 C.3       1 <0>        -0.1505
     17 C12         6.2771   -1.8377   -0.6664 C.2       1 <0>         0.5081
     18 O1          5.4598   -2.6463   -1.0526 O.2       1 <0>        -0.5454
     19 N4          7.5936   -2.1014   -0.7840 N.am      1 <0>        -0.7280
     20 C13         8.0373   -3.3648   -1.3783 C.3       1 <0>         0.1390
     21 C14         9.5665   -3.4124   -1.3927 C.3       1 <0>        -0.1692
     22 C15        10.0229   -4.7119   -2.0041 C.2       1 <0>         0.4638
     23 O2          9.2087   -5.5175   -2.3888 O.co2     1 <0>        -0.6361
     24 O3         11.3341   -4.9746   -2.1212 O.co2     1 <0>        -0.7700
     25 H2         -0.8006   -1.9895   -0.0015 H         1 <0>         0.0843
     26 H3         -1.7881   -0.7762   -0.8843 H         1 <0>         0.0792
     27 H4         -1.7720   -0.7858    0.9119 H         1 <0>         0.0787
     28 H5          1.6378   -1.3286   -0.0211 H         1 <0>         0.1355
     29 H6          4.4110    3.9311   -0.0182 H         1 <0>         0.2041
     30 H7          3.7771   -1.4277   -0.0406 H         1 <0>         0.4439
     31 H8          7.4470   -0.4700    1.3673 H         1 <0>         0.0859
     32 H9          6.2630    0.9574    3.0285 H         1 <0>         0.0479
     33 H10         4.7848    0.9180    2.0087 H         1 <0>         0.0480
     34 H11         6.2717    1.7245    1.4042 H         1 <0>         0.0713
     35 H12         6.1876   -1.5314    3.2343 H         1 <0>         0.0590
     36 H13         6.1418   -2.5537    1.7580 H         1 <0>         0.0583
     37 H14         4.7093   -1.5709    2.2146 H         1 <0>         0.0543
     38 H15         8.3349   -1.3680   -0.4338 H         1 <0>         0.4178
     39 H16         7.6499   -4.2055   -0.7841 H         1 <0>         0.0695
     40 H17         7.6584   -3.4385   -2.4084 H         1 <0>         0.0691
     41 H18         9.9539   -2.5716   -1.9868 H         1 <0>         0.0715
     42 H19         9.9454   -3.3388   -0.3626 H         1 <0>         0.0715
@<TRIPOS>BOND
     1    1    2 1
     2    1   25 1
     3    1   26 1
     4    1   27 1
     5    2   10 1
     6    2    3 2
     7    3    4 1
     8    3   28 1
     9    4    9 ar
    10    4    5 ar
    11    5    6 ar
    12    5   11 1
    13    6    7 ar
    14    7    8 ar
    15    7   29 1
    16    8    9 ar
    17    9   10 1
    18   11   12 1
    19   11   30 1
    20   12   13 1
    21   12   14 1
    22   12   17 1
    23   14   15 1
    24   14   16 1
    25   14   31 1
    26   15   32 1
    27   15   33 1
    28   15   34 1
    29   16   35 1
    30   16   36 1
    31   16   37 1
    32   17   18 2
    33   17   19 am
    34   19   20 1
    35   19   38 1
    36   20   21 1
    37   20   39 1
    38   20   40 1
    39   21   22 1
    40   21   41 1
    41   21   42 1
    42   22   23 2
    43   22   24 1
@<TRIPOS>MOLECULE
ZINC40155198
   39    40     0     0     0
SMALL
USER_CHARGES

@<TRIPOS>ATOM
      1 C1         -0.0173    1.4248    0.0099 C.3       1 <0>         0.0283
      2 O1          0.0021   -0.0041    0.0020 O.3       1 <0>        -0.3170
      3 C2          0.6062   -0.6075   -1.0563 C.ar      1 <0>         0.0576
      4 C3          1.1729    0.1613   -2.0623 C.ar      1 <0>        -0.1246
      5 C4          1.7860   -0.4515   -3.1375 C.ar      1 <0>        -0.1991
      6 C5          1.8355   -1.8358   -3.2112 C.ar      1 <0>         0.2033
      7 C6          1.2694   -2.6044   -2.2052 C.ar      1 <0>        -0.6219
      8 C7          0.6606   -1.9914   -1.1272 C.ar      1 <0>        -0.0199
      9 S1          1.3322   -4.3628   -2.2988 S.o2      1 <0>         2.6271
     10 O2          2.6796   -4.7060   -2.5923 O.2       1 <0>        -1.0085
     11 O3          0.6533   -4.8551   -1.1516 O.2       1 <0>        -1.0271
     12 N1          0.4315   -4.8157   -3.6125 N.2       1 <0>        -1.0724
     13 C8          0.3005   -6.1680   -3.9368 C.ar      1 <0>         0.3657
     14 C9          0.9204   -7.1347   -3.1549 C.ar      1 <0>        -0.2689
     15 C10         0.7884   -8.4707   -3.4780 C.ar      1 <0>        -0.0205
     16 C11         0.0405   -8.8469   -4.5789 C.ar      1 <0>        -0.2424
     17 C12        -0.5774   -7.8874   -5.3594 C.ar      1 <0>         0.0176
     18 C13        -0.4546   -6.5496   -5.0383 C.ar      1 <0>        -0.7368
     19 S2         -1.2489   -5.3281   -6.0291 S.o2      1 <0>         2.7208
     20 O4         -0.2686   -4.3418   -6.3213 O.2       1 <0>        -0.9576
     21 O5         -1.9541   -6.0261   -7.0464 O.2       1 <0>        -1.0109
     22 N2         -2.3904   -4.5943   -5.0801 N.pl3     1 <0>        -1.2456
     23 O6          2.4388   -2.4392   -4.2700 O.3       1 <0>        -0.2809
     24 C14         3.0003   -1.5861   -5.2694 C.3       1 <0>         0.0301
     25 H1          1.0053    1.8021    0.0021 H         1 <0>         0.0511
     26 H2         -0.5445    1.7859   -0.8732 H         1 <0>         0.0523
     27 H3         -0.5275    1.7763    0.9067 H         1 <0>         0.0975
     28 H4          1.1343    1.2391   -2.0050 H         1 <0>         0.1318
     29 H5          2.2266    0.1471   -3.9211 H         1 <0>         0.1357
     30 H6          0.2233   -2.5899   -0.3417 H         1 <0>         0.1524
     31 H7          1.5052   -6.8415   -2.2955 H         1 <0>         0.1051
     32 H8          1.2701   -9.2227   -2.8706 H         1 <0>         0.1097
     33 H9         -0.0608   -9.8925   -4.8296 H         1 <0>         0.1112
     34 H10        -1.1602   -8.1845   -6.2188 H         1 <0>         0.1258
     35 H11        -2.5076   -4.8738   -4.1586 H         1 <0>         0.4155
     36 H12        -2.9419   -3.8850   -5.4456 H         1 <0>         0.4052
     37 H13         2.2158   -0.9613   -5.6963 H         1 <0>         0.0565
     38 H14         3.7644   -0.9526   -4.8189 H         1 <0>         0.0498
     39 H15         3.4490   -2.1936   -6.0554 H         1 <0>         0.1039
@<TRIPOS>BOND
     1    1    2 1
     2    1   25 1
     3    1   26 1
     4    1   27 1
     5    2    3 1
     6    3    8 ar
     7    3    4 ar
     8    4    5 ar
     9    4   28 1
    10    5    6 ar
    11    5   29 1
    12    6    7 ar
    13    6   23 1
    14    7    8 ar
    15    7    9 1
    16    8   30 1
    17    9   10 2
    18    9   11 2
    19    9   12 1
    20   12   13 1
    21   13   18 ar
    22   13   14 ar
    23   14   15 ar
    24   14   31 1
    25   15   16 ar
    26   15   32 1
    27   16   17 ar
    28   16   33 1
    29   17   18 ar
    30   17   34 1
    31   18   19 1
    32   19   20 2
    33   19   21 2
    34   19   22 1
    35   22   35 1
    36   22   36 1
    37   23   24 1
    38   24   37 1
    39   24   38 1
    40   24   39 1
@<TRIPOS>MOLECULE
ZINC50633959
   43    44     0     0     0
SMALL
USER_CHARGES

@<TRIPOS>ATOM
      1 C1         -0.0187    1.5258    0.0104 C.3       1 <0>        -0.1417
      2 C2          0.0021   -0.0041    0.0020 C.3       1 <0>        -0.1166
      3 C3          0.7182   -0.4975   -1.2568 C.3       1 <0>        -0.5926
      4 S1          0.7428   -2.3113   -1.2668 S.o2      1 <0>         2.5154
      5 O1          1.5760   -2.7952   -0.2223 O.2       1 <0>        -1.0304
      6 O2         -0.5740   -2.8177   -1.4366 O.2       1 <0>        -1.0292
      7 N1          1.5354   -2.7185   -2.6626 N.2       1 <0>        -1.0378
      8 C4          1.7316   -4.0549   -2.9851 C.ar      1 <0>         0.3324
      9 C5          1.2592   -5.0535   -2.1421 C.ar      1 <0>        -0.2607
     10 C6          1.4549   -6.3804   -2.4650 C.ar      1 <0>        -0.0469
     11 C7          2.1221   -6.7284   -3.6291 C.ar      1 <0>        -0.2412
     12 C8          2.5976   -5.7527   -4.4772 C.ar      1 <0>        -0.0428
     13 C9          2.4028   -4.4042   -4.1671 C.ar      1 <0>        -0.2204
     14 C10         2.9038   -3.3548   -5.0735 C.2       1 <0>         0.5701
     15 O3          2.7359   -2.1824   -4.7979 O.2       1 <0>        -0.4860
     16 N2          3.5479   -3.6949   -6.2075 N.am      1 <0>        -0.7357
     17 C11         4.0457   -2.6521   -7.1081 C.3       1 <0>         0.1438
     18 H1          4.3827   -1.7976   -6.5213 H         1 <0>         0.1148
     19 C12         5.2178   -3.2024   -7.9244 C.3       1 <0>        -0.1295
     20 C13         5.5420   -2.2030   -9.0414 C.3       1 <0>        -0.1337
     21 C14         4.3777   -2.1818  -10.0326 C.3       1 <0>         0.1116
     22 N3          3.1140   -1.9930   -9.3312 N.am      1 <0>        -0.7291
     23 C15         2.9415   -2.2202   -8.0298 C.2       1 <0>         0.4961
     24 O4          1.8318   -2.0684   -7.5645 O.2       1 <0>        -0.5176
     25 H2          1.0039    1.9031    0.0027 H         1 <0>         0.0557
     26 H3         -0.5459    1.8868   -0.8726 H         1 <0>         0.0560
     27 H4         -0.5289    1.8773    0.9072 H         1 <0>         0.0542
     28 H5          0.5293   -0.3651    0.8851 H         1 <0>         0.0704
     29 H6         -1.0205   -0.3814    0.0098 H         1 <0>         0.0705
     30 H7          0.1910   -0.1364   -2.1398 H         1 <0>         0.1211
     31 H8          1.7408   -0.1202   -1.2645 H         1 <0>         0.1204
     32 H9          0.7387   -4.7906   -1.2331 H         1 <0>         0.1055
     33 H10         1.0863   -7.1529   -1.8065 H         1 <0>         0.1035
     34 H11         2.2703   -7.7702   -3.8722 H         1 <0>         0.1039
     35 H12         3.1171   -6.0297   -5.3827 H         1 <0>         0.1031
     36 H13         3.6818   -4.6301   -6.4273 H         1 <0>         0.3926
     37 H14         6.0877   -3.3269   -7.2795 H         1 <0>         0.0838
     38 H15         4.9427   -4.1630   -8.3600 H         1 <0>         0.0743
     39 H16         5.6773   -1.2091   -8.6148 H         1 <0>         0.0757
     40 H17         6.4533   -2.5106   -9.5542 H         1 <0>         0.0870
     41 H18         4.5222   -1.3658  -10.7406 H         1 <0>         0.0732
     42 H19         4.3504   -3.1260  -10.5764 H         1 <0>         0.0622
     43 H20         2.3512   -1.6835   -9.8443 H         1 <0>         0.3947
@<TRIPOS>BOND
     1    1    2 1
     2    1   25 1
     3    1   26 1
     4    1   27 1
     5    2    3 1
     6    2   28 1
     7    2   29 1
     8    3    4 1
     9    3   30 1
    10    3   31 1
    11    4    5 2
    12    4    6 2
    13    4    7 1
    14    7    8 1
    15    8   13 ar
    16    8    9 ar
    17    9   10 ar
    18    9   32 1
    19   10   11 ar
    20   10   33 1
    21   11   12 ar
    22   11   34 1
    23   12   13 ar
    24   12   35 1
    25   13   14 1
    26   14   15 2
    27   14   16 am
    28   16   17 1
    29   16   36 1
    30   17   18 1
    31   17   23 1
    32   17   19 1
    33   19   20 1
    34   19   37 1
    35   19   38 1
    36   20   21 1
    37   20   39 1
    38   20   40 1
    39   21   22 1
    40   21   41 1
    41   21   42 1
    42   22   23 am
    43   22   43 1
    44   23   24 2
@<TRIPOS>MOLECULE
ZINC19819315
   38    39     0     0     0
SMALL
USER_CHARGES

@<TRIPOS>ATOM
      1 C1          0.8459   -0.7976   -0.2487 C.3       1 <0>        -0.1357
      2 C2         -0.3148   -1.0338   -1.2171 C.3       1 <0>        -0.0040
      3 C3         -1.6203   -0.7832   -0.5072 C.2       1 <0>         0.0869
      4 N1         -2.3533   -1.7026    0.1795 N.2       1 <0>        -0.5737
      5 C4         -3.4489   -1.0293    0.6501 C.2       1 <0>         0.1974
      6 N2         -3.3364    0.2176    0.2445 N.2       1 <0>        -0.3544
      7 N3         -2.2530    0.3570   -0.4332 N.2       1 <0>        -0.3626
      8 N4         -4.4651   -1.5523    1.3980 N.2       1 <0>        -0.3192
      9 C5         -5.5524   -1.9509    0.8228 C.2       1 <0>         0.1232
     10 C6         -6.7293   -2.3880    1.6564 C.3       1 <0>        -0.0590
     11 C7         -7.8793   -1.4387    1.4388 C.2       1 <0>         0.5030
     12 O1         -7.7551   -0.4969    0.6792 O.2       1 <0>        -0.5583
     13 N5         -9.0276   -1.6303    2.0760 N.2       1 <0>        -0.6557
     14 C8        -10.0460   -0.7896    1.8833 C.2       1 <0>         0.6193
     15 N6        -10.0504    0.2985    1.0693 N.pl3     1 <0>        -0.6254
     16 C9        -11.2832    0.8914    1.1535 C.2       1 <0>         0.2817
     17 N7        -12.0196    0.2153    1.9763 N.2       1 <0>        -0.2768
     18 N8        -11.2665   -0.8648    2.4564 N.pl3     1 <0>        -0.4921
     19 C10       -11.7121    2.1295    0.4090 C.3       1 <0>        -0.0520
     20 C11       -13.1585    2.4691    0.7747 C.3       1 <0>        -0.1444
     21 C12        -5.6428   -1.9782   -0.6813 C.3       1 <0>         0.4552
     22 F1         -4.3752   -1.7529   -1.2287 F         1 <0>        -0.1483
     23 F2         -6.1151   -3.2276   -1.0974 F         1 <0>        -0.1914
     24 F3         -6.5219   -0.9796   -1.1139 F         1 <0>        -0.1614
     25 H1          1.7901   -0.9789   -0.7622 H         1 <0>         0.0453
     26 H2          0.8180    0.2321    0.1076 H         1 <0>         0.0501
     27 H3          0.7565   -1.4778    0.5983 H         1 <0>         0.0495
     28 H4         -0.2254   -0.3537   -2.0642 H         1 <0>         0.0622
     29 H5         -0.2869   -2.0635   -1.5735 H         1 <0>         0.0596
     30 H6         -7.0284   -3.3944    1.3632 H         1 <0>         0.1214
     31 H7         -6.4496   -2.3846    2.7099 H         1 <0>         0.1301
     32 H8        -11.0632    2.9613    0.6830 H         1 <0>         0.1034
     33 H9        -11.6409    1.9513   -0.6639 H         1 <0>         0.1031
     34 H10       -13.8074    1.6373    0.5007 H         1 <0>         0.0653
     35 H11       -13.2297    2.6473    1.8477 H         1 <0>         0.0655
     36 H12       -13.4687    3.3646    0.2363 H         1 <0>         0.0700
     37 H13        -9.3088    0.6033    0.5233 H         1 <0>         0.4560
     38 H14       -11.5658   -1.5402    3.0850 H         1 <0>         0.4659
@<TRIPOS>BOND
     1    1    2 1
     2    1   25 1
     3    1   26 1
     4    1   27 1
     5    2    3 1
     6    2   28 1
     7    2   29 1
     8    3    7 2
     9    3    4 1
    10    4    5 1
    11    5    6 2
    12    5    8 1
    13    6    7 1
    14    8    9 2
    15    9   21 1
    16    9   10 1
    17   10   11 1
    18   10   31 1
    19   10   30 1
    20   11   12 2
    21   11   13 1
    22   13   14 2
    23   14   15 1
    24   14   18 1
    25   15   16 1
    26   15   37 1
    27   16   19 1
    28   16   17 2
    29   17   18 1
    30   18   38 1
    31   19   20 1
    32   19   32 1
    33   19   33 1
    34   20   34 1
    35   20   35 1
    36   20   36 1
    37   21   22 1
    38   21   23 1
    39   21   24 1
@<TRIPOS>MOLECULE
ZINC04705735
   45    47     0     0     0
SMALL
USER_CHARGES
2-(2-amino-6-butylsulfanyl-purin-9-yl)-5-(hydroxymethyl)tetrahydrofuran-3,4-diol
@<TRIPOS>ATOM
      1 C1         -9.2889   -6.7233   -4.4768 C.3       1 <0>        -0.1539
      2 C2         -8.9588   -5.3223   -3.9578 C.3       1 <0>        -0.1175
      3 C3         -7.4511   -5.2067   -3.7252 C.3       1 <0>        -0.1093
      4 C4         -7.1211   -3.8057   -3.2062 C.3       1 <0>        -0.1142
      5 S1         -5.3373   -3.6690   -2.9309 S.3       1 <0>         0.0013
      6 C5         -5.2434   -2.0069   -2.3534 C.ar      1 <0>         0.2641
      7 C6         -4.0065   -1.4375   -2.0011 C.ar      1 <0>        -0.0860
      8 C7         -3.9907   -0.1091   -1.5466 C.ar      1 <0>         0.3557
      9 N1         -5.1361    0.5616   -1.4648 N.ar      1 <0>        -0.5814
     10 C8         -6.2783   -0.0121   -1.8064 C.ar      1 <0>         0.6025
     11 N2         -6.3398   -1.2644   -2.2409 N.ar      1 <0>        -0.5736
     12 N3         -7.4501    0.7198   -1.7076 N.pl3     1 <0>        -0.8182
     13 N4         -2.6775    0.1841   -1.2786 N.pl3     1 <0>        -0.4727
     14 C9         -1.9429   -0.9283   -1.5692 C.2       1 <0>         0.2681
     15 N5         -2.7252   -1.8799   -1.9877 N.2       1 <0>        -0.4515
     16 C10        -2.1586    1.4594   -0.7782 C.3       1 <0>         0.3122
     17 H1         -2.7239    2.2848   -1.2110 H         1 <0>         0.1429
     18 C11        -2.2640    1.5012    0.7587 C.3       1 <0>         0.0784
     19 H2         -2.8374    2.3714    1.0782 H         1 <0>         0.1031
     20 C12        -0.7959    1.6143    1.2367 C.3       1 <0>         0.0480
     21 H3         -0.6209    0.9852    2.1095 H         1 <0>         0.0934
     22 C13        -0.0127    1.0858    0.0080 C.3       1 <0>         0.0361
     23 H4          0.0021   -0.0041    0.0020 H         1 <0>         0.0958
     24 O1         -0.7639    1.5903   -1.1170 O.3       1 <0>        -0.3310
     25 C14         1.4124    1.6424   -0.0026 C.3       1 <0>         0.0780
     26 O2          2.1316    1.0892   -1.1066 O.3       1 <0>        -0.5617
     27 O3         -0.4531    2.9736    1.5139 O.3       1 <0>        -0.5450
     28 O4         -2.8595    0.2996    1.2520 O.3       1 <0>        -0.5355
     29 H5        -10.3630   -6.8056   -4.6425 H         1 <0>         0.0562
     30 H6         -8.7621   -6.8965   -5.4152 H         1 <0>         0.0554
     31 H7         -8.9766   -7.4657   -3.7424 H         1 <0>         0.0552
     32 H8         -9.4856   -5.1490   -3.0194 H         1 <0>         0.0645
     33 H9         -9.2711   -4.5799   -4.6922 H         1 <0>         0.0646
     34 H10        -6.9243   -5.3799   -4.6636 H         1 <0>         0.0727
     35 H11        -7.1388   -5.9491   -2.9907 H         1 <0>         0.0726
     36 H12        -7.6478   -3.6325   -2.2678 H         1 <0>         0.0947
     37 H13        -7.4334   -3.0633   -3.9406 H         1 <0>         0.0949
     38 H14        -8.2967    0.3156   -1.9541 H         1 <0>         0.4160
     39 H15        -7.4241    1.6367   -1.3920 H         1 <0>         0.4147
     40 H16        -0.8709   -1.0080   -1.4649 H         1 <0>         0.2156
     41 H17         1.3780    2.7276   -0.0985 H         1 <0>         0.0659
     42 H18         1.9136    1.3756    0.9279 H         1 <0>         0.0664
     43 H19         3.0452    1.3987   -1.1757 H         1 <0>         0.3876
     44 H20         0.4798    3.1077    1.7304 H         1 <0>         0.3863
     45 H21        -2.8978    0.2470    2.2168 H         1 <0>         0.3889
@<TRIPOS>BOND
     1    1    2 1
     2    1   29 1
     3    1   30 1
     4    1   31 1
     5    2    3 1
     6    2   32 1
     7    2   33 1
     8    3    4 1
     9    3   34 1
    10    3   35 1
    11    4    5 1
    12    4   36 1
    13    4   37 1
    14    5    6 1
    15    6   11 ar
    16    6    7 ar
    17    7   15 1
    18    7    8 ar
    19    8    9 ar
    20    8   13 1
    21    9   10 ar
    22   10   11 ar
    23   10   12 1
    24   12   38 1
    25   12   39 1
    26   13   14 1
    27   13   16 1
    28   14   15 2
    29   14   40 1
    30   16   17 1
    31   16   24 1
    32   16   18 1
    33   18   19 1
    34   18   20 1
    35   18   28 1
    36   20   21 1
    37   20   22 1
    38   20   27 1
    39   22   23 1
    40   22   24 1
    41   22   25 1
    42   25   26 1
    43   25   41 1
    44   25   42 1
    45   26   43 1
    46   27   44 1
    47   28   45 1
@<TRIPOS>MOLECULE
ZINC12879773
   51    53     0     0     0
SMALL
USER_CHARGES
(2R)-5-oxo-N-[4-[2-oxo-2-[2-(4-sulfamoylphenyl)ethylamino]ethyl]thiazol-2-yl]pyrrolidine-2-carboxamide
@<TRIPOS>ATOM
      1 C1         -0.0167    1.3781    0.0096 C.ar      1 <0>        -0.1345
      2 C2          0.0021   -0.0041    0.0020 C.ar      1 <0>        -0.0185
      3 C3          1.2084   -0.6789   -0.0132 C.ar      1 <0>        -0.6785
      4 C4          2.3961    0.0285   -0.0212 C.ar      1 <0>        -0.0133
      5 C5          2.3773    1.4107   -0.0145 C.ar      1 <0>        -0.1349
      6 C6          1.1709    2.0855    0.0021 C.ar      1 <0>        -0.0233
      7 C7          1.1505    3.5924    0.0099 C.3       1 <0>        -0.1010
      8 C8          1.1571    4.0950    1.4550 C.3       1 <0>         0.1263
      9 N1          1.1372    5.5598    1.4626 N.am      1 <0>        -0.7372
     10 C9          1.1390    6.2277    2.6332 C.2       1 <0>         0.5177
     11 O1          1.1571    5.6161    3.6804 O.2       1 <0>        -0.5158
     12 C10         1.1186    7.7346    2.6411 C.3       1 <0>        -0.0673
     13 C11         1.1251    8.2296    4.0644 C.2       1 <0>         0.0965
     14 C12         2.0744    9.0973    4.4925 C.2       1 <0>        -0.2572
     15 S1          1.5825    9.3132    6.1967 S.3       1 <0>         0.1620
     16 C13         0.2084    8.2518    6.1714 C.2       1 <0>         0.2795
     17 N2          0.2106    7.8245    4.9237 N.2       1 <0>        -0.5164
     18 N3         -0.6685    7.9337    7.2019 N.am      1 <0>        -0.6043
     19 C14        -0.5015    8.4813    8.4220 C.2       1 <0>         0.5055
     20 O2          0.4139    9.2516    8.6208 O.2       1 <0>        -0.4843
     21 C15        -1.4523    8.1365    9.5392 C.3       1 <0>         0.1271
     22 H1         -2.4723    8.0743    9.1600 H         1 <0>         0.1178
     23 C16        -1.0421    6.8003   10.1970 C.3       1 <0>        -0.1248
     24 C17        -1.3962    7.0571   11.6801 C.3       1 <0>        -0.1546
     25 C18        -1.3401    8.5624   11.8196 C.2       1 <0>         0.5248
     26 O3         -1.2789    9.1607   12.8728 O.2       1 <0>        -0.5190
     27 N4         -1.3675    9.1405   10.6063 N.am      1 <0>        -0.7129
     28 S2          1.2323   -2.4407   -0.0217 S.o2      1 <0>         2.7014
     29 O4          2.4885   -2.8324    0.5148 O.2       1 <0>        -0.9616
     30 O5         -0.0018   -2.8663    0.5395 O.2       1 <0>        -0.9597
     31 N5          1.2232   -2.9228   -1.6059 N.pl3     1 <0>        -1.2479
     32 H2         -0.9592    1.9054    0.0170 H         1 <0>         0.1355
     33 H3         -0.9258   -0.5567    0.0083 H         1 <0>         0.1444
     34 H4          3.3386   -0.4987   -0.0324 H         1 <0>         0.1443
     35 H5          3.3052    1.9634   -0.0201 H         1 <0>         0.1355
     36 H6          2.0306    3.9704   -0.5103 H         1 <0>         0.0873
     37 H7          0.2509    3.9462   -0.4937 H         1 <0>         0.0873
     38 H8          0.2770    3.7170    1.9752 H         1 <0>         0.0711
     39 H9          2.0567    3.7412    1.9586 H         1 <0>         0.0706
     40 H10         1.1228    6.0490    0.6251 H         1 <0>         0.4011
     41 H11         1.9987    8.1126    2.1209 H         1 <0>         0.1119
     42 H12         0.2190    8.0884    2.1374 H         1 <0>         0.1101
     43 H13         2.8998    9.5373    3.9524 H         1 <0>         0.1975
     44 H14        -1.4007    7.3176    7.0428 H         1 <0>         0.4281
     45 H15        -1.6253    5.9721    9.7944 H         1 <0>         0.1082
     46 H16         0.0258    6.6180   10.0768 H         1 <0>         0.0921
     47 H17        -0.6630    6.5858   12.3345 H         1 <0>         0.1114
     48 H18        -2.3979    6.6903   11.9043 H         1 <0>         0.1141
     49 H19        -1.3351   10.0981   10.4555 H         1 <0>         0.4182
     50 H20         1.6521   -3.7542   -1.8623 H         1 <0>         0.4224
     51 H21         0.7890   -2.3738   -2.2775 H         1 <0>         0.4171
@<TRIPOS>BOND
     1    1    6 ar
     2    1    2 ar
     3    1   32 1
     4    2    3 ar
     5    2   33 1
     6    3    4 ar
     7    3   28 1
     8    4    5 ar
     9    4   34 1
    10    5    6 ar
    11    5   35 1
    12    6    7 1
    13    7    8 1
    14    7   36 1
    15    7   37 1
    16    8    9 1
    17    8   38 1
    18    8   39 1
    19    9   10 am
    20    9   40 1
    21   10   11 2
    22   10   12 1
    23   12   13 1
    24   12   41 1
    25   12   42 1
    26   13   17 1
    27   13   14 2
    28   14   15 1
    29   14   43 1
    30   15   16 1
    31   16   17 2
    32   16   18 1
    33   18   19 am
    34   18   44 1
    35   19   20 2
    36   19   21 1
    37   21   22 1
    38   21   27 1
    39   21   23 1
    40   23   24 1
    41   23   45 1
    42   23   46 1
    43   24   25 1
    44   24   47 1
    45   24   48 1
    46   25   26 2
    47   25   27 am
    48   27   49 1
    49   28   29 2
    50   28   30 2
    51   28   31 1
    52   31   50 1
    53   31   51 1
@<TRIPOS>MOLECULE
ZINC25262165
   48    49     0     0     0
SMALL
USER_CHARGES
[(1S)-1-(3-bromophenyl)-3-oxo-3-[N'-[[(2R)-tetrahydrofuran-2-yl]methylcarbamothioyl]hydrazino]propyl]urea
@<TRIPOS>ATOM
      1 C1         -8.3005    1.5197   -1.2675 C.ar      1 <0>        -0.1144
      2 C2         -6.9492    1.2315   -1.2177 C.ar      1 <0>        -0.0873
      3 C3         -6.3435    0.9635   -0.0046 C.ar      1 <0>        -0.0917
      4 C4         -7.0864    0.9938    1.1608 C.ar      1 <0>        -0.0718
      5 C5         -8.4371    1.2872    1.1121 C.ar      1 <0>        -0.0883
      6 C6         -9.0441    1.5502   -0.1030 C.ar      1 <0>        -0.0883
      7 Br1        -9.4538    1.3294    2.7060 Br        1 <0>        -0.0471
      8 C7         -4.8716    0.6443    0.0484 C.3       1 <0>         0.2279
      9 H1         -4.6398    0.1084    0.9807 H         1 <0>         0.1090
     10 C8         -4.0647    1.9401   -0.0558 C.3       1 <0>        -0.1368
     11 C9         -2.5994    1.6349    0.1201 C.2       1 <0>         0.5191
     12 O1         -2.2363    0.4935    0.3102 O.2       1 <0>        -0.5096
     13 N1         -1.6926    2.6305    0.0663 N.am      1 <0>        -0.5593
     14 N2         -0.3304    2.3468    0.2299 N.pl3     1 <0>        -0.4827
     15 C10         0.5770    3.3416    0.1705 C.2       1 <0>         0.5678
     16 S1          2.2422    2.9940    0.3634 S.2       1 <0>        -0.6140
     17 N3          0.1735    4.6101   -0.0407 N.pl3     1 <0>        -0.6882
     18 C11         1.1598    5.6914   -0.1052 C.3       1 <0>         0.1279
     19 C12         0.4437    7.0208   -0.3520 C.3       1 <0>         0.0603
     20 H2         -0.3173    7.1811    0.4260 H         1 <0>         0.0762
     21 C13         1.4731    8.1654   -0.4216 C.3       1 <0>        -0.1493
     22 C14         1.2573    8.7850   -1.8238 C.3       1 <0>        -0.1573
     23 C15        -0.1783    8.3140   -2.1695 C.3       1 <0>         0.0495
     24 O2         -0.2377    6.9814   -1.6171 O.3       1 <0>        -0.3758
     25 N4         -4.5230   -0.2391   -1.0671 N.am      1 <0>        -0.7452
     26 C16        -4.6782   -1.5723   -0.9448 C.2       1 <0>         0.7165
     27 O3         -5.1913   -2.0353    0.0555 O.2       1 <0>        -0.5967
     28 N5         -4.2647   -2.3921   -1.9313 N.am      1 <0>        -0.8912
     29 H3         -8.7742    1.7253   -2.2160 H         1 <0>         0.1321
     30 H4         -6.3675    1.2121   -2.1275 H         1 <0>         0.1252
     31 H5         -6.6123    0.7881    2.1091 H         1 <0>         0.1333
     32 H6        -10.0987    1.7797   -0.1414 H         1 <0>         0.1330
     33 H7         -4.2284    2.3955   -1.0436 H         1 <0>         0.1114
     34 H8         -4.3904    2.6390    0.7287 H         1 <0>         0.1203
     35 H9         -2.0220    3.6658   -0.1060 H         1 <0>         0.4377
     36 H10        -0.0015    1.3122    0.4068 H         1 <0>         0.4885
     37 H11        -0.8964    4.8335   -0.1646 H         1 <0>         0.4088
     38 H12         1.7105    5.7425    0.8456 H         1 <0>         0.1013
     39 H13         1.8645    5.4964   -0.9270 H         1 <0>         0.0962
     40 H14         1.2736    8.8874    0.3840 H         1 <0>         0.0827
     41 H15         2.4867    7.7547   -0.3032 H         1 <0>         0.0875
     42 H16         1.3471    9.8794   -1.7588 H         1 <0>         0.0845
     43 H17         2.0167    8.3954   -2.5177 H         1 <0>         0.0806
     44 H18        -0.9087    8.9928   -1.7050 H         1 <0>         0.0649
     45 H19        -0.3137    8.3212   -3.2611 H         1 <0>         0.0971
     46 H20        -4.1346    0.1857   -2.0045 H         1 <0>         0.4082
     47 H21        -4.3914   -3.4802   -1.8315 H         1 <0>         0.4368
     48 H22        -3.8005   -1.9731   -2.8363 H         1 <0>         0.4107
@<TRIPOS>BOND
     1    1    6 ar
     2    1    2 ar
     3    1   29 1
     4    2    3 ar
     5    2   30 1
     6    3    4 ar
     7    3    8 1
     8    4    5 ar
     9    4   31 1
    10    5    6 ar
    11    5    7 1
    12    6   32 1
    13    8    9 1
    14    8   10 1
    15    8   25 1
    16   10   11 1
    17   10   33 1
    18   10   34 1
    19   11   12 2
    20   11   13 am
    21   13   14 1
    22   13   35 1
    23   14   15 1
    24   14   36 1
    25   15   16 2
    26   15   17 1
    27   17   18 1
    28   17   37 1
    29   18   19 1
    30   18   38 1
    31   18   39 1
    32   19   20 1
    33   19   24 1
    34   19   21 1
    35   21   22 1
    36   21   40 1
    37   21   41 1
    38   22   23 1
    39   22   42 1
    40   22   43 1
    41   23   24 1
    42   23   44 1
    43   23   45 1
    44   25   26 am
    45   25   46 1
    46   26   27 2
    47   26   28 am
    48   28   47 1
    49   28   48 1
@<TRIPOS>MOLECULE
ZINC37538972
   63    65     0     0     0
SMALL
USER_CHARGES

@<TRIPOS>ATOM
      1 C1         -0.0184    1.5028    0.0103 C.3       1 <0>        -0.1134
      2 C2          0.0021   -0.0041    0.0020 C.ar      1 <0>        -0.0433
      3 C3          0.0057   -0.6883   -1.1997 C.ar      1 <0>        -0.1501
      4 C4          0.0244   -2.0706   -1.2107 C.ar      1 <0>        -0.0808
      5 C5          0.0391   -2.7719   -0.0203 C.ar      1 <0>        -0.1093
      6 C6          0.0355   -2.0879    1.1864 C.ar      1 <0>         0.1257
      7 C7          0.0229   -0.7004    1.1947 C.ar      1 <0>        -0.1750
      8 O1          0.0500   -2.7755    2.3585 O.3       1 <0>        -0.2952
      9 C8          0.0452   -2.0055    3.5624 C.3       1 <0>         0.2271
     10 H1         -0.8057   -1.3244    3.5549 H         1 <0>         0.0745
     11 C9         -0.0621   -2.9433    4.7677 C.3       1 <0>         0.0606
     12 H2          0.7666   -3.6512    4.7534 H         1 <0>         0.0865
     13 C10        -0.0059   -2.1155    6.0553 C.3       1 <0>         0.0870
     14 H3         -0.8621   -1.4420    6.0935 H         1 <0>         0.0783
     15 C11         1.2897   -1.2985    6.0680 C.3       1 <0>         0.0903
     16 H4          2.1457   -1.9731    6.0799 H         1 <0>         0.0814
     17 C12         1.3447   -0.4243    4.8124 C.3       1 <0>         0.1128
     18 H5          0.5109    0.2777    4.8214 H         1 <0>         0.0828
     19 O2          1.2570   -1.2534    3.6518 O.3       1 <0>        -0.3649
     20 C13         2.6638    0.3506    4.7876 C.3       1 <0>         0.0776
     21 O3          2.6658    1.2523    3.6791 O.3       1 <0>        -0.3506
     22 C14         3.8597    2.0291    3.5638 C.3       1 <0>         0.2100
     23 H6          4.1014    2.4818    4.5254 H         1 <0>         0.0752
     24 C15         3.6692    3.1280    2.5004 C.3       1 <0>         0.1010
     25 H7          3.7975    4.1151    2.9446 H         1 <0>         0.0894
     26 C16         4.7855    2.8509    1.4642 C.3       1 <0>         0.1133
     27 C17         5.7930    2.0104    2.2893 C.3       1 <0>         0.0330
     28 O4          4.9461    1.1940    3.1298 O.3       1 <0>        -0.3776
     29 C18         5.4249    4.1567    0.9880 C.3       1 <0>         0.0548
     30 O5          6.4488    3.8658    0.0346 O.3       1 <0>        -0.5710
     31 O6          4.2799    2.0998    0.3586 O.3       1 <0>        -0.5143
     32 O7          2.3805    3.0181    1.8928 O.3       1 <0>        -0.5144
     33 O8          1.3195   -0.4685    7.2309 O.3       1 <0>        -0.5501
     34 O9         -0.0337   -2.9884    7.1864 O.3       1 <0>        -0.5542
     35 O10        -1.2996   -3.6555    4.7100 O.3       1 <0>        -0.5541
     36 C19         0.0585   -4.2788   -0.0330 C.3       1 <0>        -0.0492
     37 C20        -1.1875   -4.7988   -0.7527 C.3       1 <0>        -0.1427
     38 C21         1.3107   -4.7665   -0.7644 C.3       1 <0>        -0.1430
     39 H8          1.0042    1.8801    0.0026 H         1 <0>         0.0893
     40 H9         -0.5455    1.8639   -0.8728 H         1 <0>         0.0602
     41 H10        -0.5286    1.8543    0.9071 H         1 <0>         0.0597
     42 H11        -0.0065   -0.1419   -2.1312 H         1 <0>         0.1211
     43 H12         0.0272   -2.6027   -2.1505 H         1 <0>         0.1260
     44 H13         0.0248   -0.1655    2.1329 H         1 <0>         0.1278
     45 H14         2.7717    0.9140    5.7145 H         1 <0>         0.0815
     46 H15         3.4941   -0.3486    4.6887 H         1 <0>         0.0698
     47 H16         6.3998    1.3861    1.6334 H         1 <0>         0.1081
     48 H17         6.4250    2.6574    2.8977 H         1 <0>         0.0741
     49 H18         4.6647    4.7855    0.5244 H         1 <0>         0.0645
     50 H19         5.8595    4.6802    1.8396 H         1 <0>         0.0587
     51 H20         6.8984    4.6491   -0.3111 H         1 <0>         0.3900
     52 H21         4.9420    1.9012   -0.3176 H         1 <0>         0.3811
     53 H22         1.6441    3.1263    2.5101 H         1 <0>         0.3796
     54 H23         1.2831   -0.9577    8.0642 H         1 <0>         0.3955
     55 H24        -0.8256   -3.5410    7.2375 H         1 <0>         0.3959
     56 H25        -1.4044   -4.1983    3.9166 H         1 <0>         0.3956
     57 H26         0.0682   -4.6506    0.9915 H         1 <0>         0.0797
     58 H27        -1.1971   -4.4269   -1.7772 H         1 <0>         0.0557
     59 H28        -1.1735   -5.8887   -0.7618 H         1 <0>         0.0568
     60 H29        -2.0796   -4.4513   -0.2316 H         1 <0>         0.0540
     61 H30         1.3011   -4.3946   -1.7890 H         1 <0>         0.0556
     62 H31         2.1984   -4.3960   -0.2518 H         1 <0>         0.0549
     63 H32         1.3248   -5.8564   -0.7736 H         1 <0>         0.0565
@<TRIPOS>BOND
     1    1    2 1
     2    1   39 1
     3    1   40 1
     4    1   41 1
     5    2    7 ar
     6    2    3 ar
     7    3    4 ar
     8    3   42 1
     9    4    5 ar
    10    4   43 1
    11    5    6 ar
    12    5   36 1
    13    6    7 ar
    14    6    8 1
    15    7   44 1
    16    8    9 1
    17    9   10 1
    18    9   19 1
    19    9   11 1
    20   11   12 1
    21   11   13 1
    22   11   35 1
    23   13   14 1
    24   13   15 1
    25   13   34 1
    26   15   16 1
    27   15   17 1
    28   15   33 1
    29   17   18 1
    30   17   19 1
    31   17   20 1
    32   20   21 1
    33   20   45 1
    34   20   46 1
    35   21   22 1
    36   22   23 1
    37   22   28 1
    38   22   24 1
    39   24   25 1
    40   24   26 1
    41   24   32 1
    42   26   27 1
    43   26   29 1
    44   26   31 1
    45   27   28 1
    46   27   47 1
    47   27   48 1
    48   29   30 1
    49   29   49 1
    50   29   50 1
    51   30   51 1
    52   31   52 1
    53   32   53 1
    54   33   54 1
    55   34   55 1
    56   35   56 1
    57   36   37 1
    58   36   38 1
    59   36   57 1
    60   37   58 1
    61   37   59 1
    62   37   60 1
    63   38   61 1
    64   38   62 1
    65   38   63 1
@<TRIPOS>MOLECULE
ZINC33955979
   67    68     0     0     0
SMALL
USER_CHARGES

@<TRIPOS>ATOM
      1 C1         -0.2013    1.4874    0.0184 C.3       1 <0>        -0.1193
      2 C2         -0.0874   -0.0152    0.0085 C.2       1 <0>        -0.1307
      3 C3          0.1206   -0.6637    1.1276 C.2       1 <0>        -0.1709
      4 C4          0.1232    0.0784    2.4392 C.3       1 <0>        -0.0859
      5 C5         -0.8791   -0.5719    3.3950 C.3       1 <0>        -0.0780
      6 C6         -0.8765    0.1702    4.7066 C.2       1 <0>        -0.1063
      7 C7         -1.7564    1.1157    4.9260 C.2       1 <0>        -0.1646
      8 C8         -1.7538    1.8578    6.2376 C.3       1 <0>         0.0909
      9 O1         -1.8925    3.2588    5.9925 O.3       1 <0>        -0.3607
     10 C9         -1.9018    4.0579    7.1771 C.3       1 <0>         0.2269
     11 H1         -1.0060    3.8506    7.7625 H         1 <0>         0.0665
     12 C10        -1.9291    5.5397    6.7931 C.3       1 <0>         0.0595
     13 H2         -2.8034    5.7393    6.1735 H         1 <0>         0.0837
     14 C11        -1.9997    6.3879    8.0666 C.3       1 <0>         0.0851
     15 H3         -1.1018    6.2258    8.6630 H         1 <0>         0.0774
     16 C12        -3.2333    5.9740    8.8749 C.3       1 <0>         0.0916
     17 H4         -4.1339    6.1824    8.2974 H         1 <0>         0.0801
     18 C13        -3.1556    4.4755    9.1784 C.3       1 <0>         0.1127
     19 H5         -2.2763    4.2736    9.7902 H         1 <0>         0.0849
     20 O2         -3.0608    3.7466    7.9529 O.3       1 <0>        -0.3803
     21 C14        -4.4134    4.0421    9.9341 C.3       1 <0>         0.0784
     22 O3         -4.2892    2.6715   10.3192 O.3       1 <0>        -0.3572
     23 C15        -5.4170    2.1645   11.0354 C.3       1 <0>         0.2281
     24 H6         -6.3219    2.3251   10.4493 H         1 <0>         0.0693
     25 C16        -5.2307    0.6659   11.2866 C.3       1 <0>         0.1025
     26 H7         -4.3048    0.5013   11.8376 H         1 <0>         0.0818
     27 C17        -6.4142    0.1425   12.1062 C.3       1 <0>         0.1236
     28 H8         -7.3347    0.2617   11.5348 H         1 <0>         0.0734
     29 C18        -6.5124    0.9425   13.4088 C.3       1 <0>         0.0387
     30 H9         -5.6124    0.7834   14.0027 H         1 <0>         0.0808
     31 C19        -6.6493    2.4304   13.0757 C.3       1 <0>         0.0404
     32 O4         -5.5325    2.8454   12.2865 O.3       1 <0>        -0.3916
     33 O5         -7.6557    0.5106   14.1494 O.3       1 <0>        -0.5564
     34 O6         -6.2135   -1.2401   12.4064 O.3       1 <0>        -0.5461
     35 O7         -5.1717   -0.0241   10.0366 O.3       1 <0>        -0.5420
     36 O8         -3.2705    6.7093   10.0996 O.3       1 <0>        -0.5491
     37 O9         -2.0975    7.7697    7.7158 O.3       1 <0>        -0.5556
     38 O10        -0.7435    5.8664    6.0654 O.3       1 <0>        -0.5558
     39 C20         0.1381   -0.1753    5.7659 C.3       1 <0>        -0.1283
     40 C21        -0.2127   -0.7719   -1.2887 C.3       1 <0>        -0.1193
     41 H10         0.6842    1.9158    0.4880 H         1 <0>         0.0654
     42 H11        -0.2821    1.8524   -1.0055 H         1 <0>         0.0600
     43 H12        -1.0883    1.7809    0.5798 H         1 <0>         0.0664
     44 H13         0.2902   -1.7302    1.1102 H         1 <0>         0.1081
     45 H14         1.1206    0.0392    2.8769 H         1 <0>         0.0696
     46 H15        -0.1585    1.1176    2.2692 H         1 <0>         0.0724
     47 H16        -1.8766   -0.5327    2.9573 H         1 <0>         0.0704
     48 H17        -0.5975   -1.6110    3.5650 H         1 <0>         0.0716
     49 H18        -2.4836    1.3633    4.1668 H         1 <0>         0.1172
     50 H19        -2.5852    1.5124    6.8521 H         1 <0>         0.0721
     51 H20        -0.8148    1.6713    6.7587 H         1 <0>         0.0622
     52 H21        -4.5337    4.6600   10.8239 H         1 <0>         0.0945
     53 H22        -5.2839    4.1607    9.2890 H         1 <0>         0.0642
     54 H23        -7.5704    2.5945   12.5164 H         1 <0>         0.0676
     55 H24        -6.6766    3.0087   13.9992 H         1 <0>         0.1104
     56 H25        -7.7799    0.9759   14.9879 H         1 <0>         0.3900
     57 H26        -6.9266   -1.6376   12.9247 H         1 <0>         0.3890
     58 H27        -4.4466    0.2610    9.4638 H         1 <0>         0.3899
     59 H28        -3.3158    7.6680    9.9816 H         1 <0>         0.3952
     60 H29        -1.3505    8.0975    7.1965 H         1 <0>         0.3955
     61 H30        -0.6323    5.3622    5.2478 H         1 <0>         0.3953
     62 H31         1.0303    0.4354    5.6274 H         1 <0>         0.0704
     63 H32        -0.2852    0.0183    6.7515 H         1 <0>         0.0661
     64 H33         0.4032   -1.2295    5.6850 H         1 <0>         0.0673
     65 H34        -0.3819   -0.0690   -2.1044 H         1 <0>         0.0613
     66 H35         0.7053   -1.3296   -1.4742 H         1 <0>         0.0644
     67 H36        -1.0520   -1.4644   -1.2258 H         1 <0>         0.0654
@<TRIPOS>BOND
     1    1    2 1
     2    1   41 1
     3    1   42 1
     4    1   43 1
     5    2    3 2
     6    2   40 1
     7    3    4 1
     8    3   44 1
     9    4    5 1
    10    4   45 1
    11    4   46 1
    12    5    6 1
    13    5   47 1
    14    5   48 1
    15    6    7 2
    16    6   39 1
    17    7    8 1
    18    7   49 1
    19    8    9 1
    20    8   50 1
    21    8   51 1
    22    9   10 1
    23   10   11 1
    24   10   20 1
    25   10   12 1
    26   12   13 1
    27   12   14 1
    28   12   38 1
    29   14   15 1
    30   14   16 1
    31   14   37 1
    32   16   17 1
    33   16   18 1
    34   16   36 1
    35   18   19 1
    36   18   20 1
    37   18   21 1
    38   21   22 1
    39   21   52 1
    40   21   53 1
    41   22   23 1
    42   23   24 1
    43   23   32 1
    44   23   25 1
    45   25   26 1
    46   25   27 1
    47   25   35 1
    48   27   28 1
    49   27   29 1
    50   27   34 1
    51   29   30 1
    52   29   31 1
    53   29   33 1
    54   31   32 1
    55   31   54 1
    56   31   55 1
    57   33   56 1
    58   34   57 1
    59   35   58 1
    60   36   59 1
    61   37   60 1
    62   38   61 1
    63   39   62 1
    64   39   63 1
    65   39   64 1
    66   40   65 1
    67   40   66 1
    68   40   67 1
@<TRIPOS>MOLECULE
ZINC05215348
   38    39     0     0     0
SMALL
USER_CHARGES
1-[3,4-dihydroxy-5-(hydroxymethyl)tetrahydrofuran-2-yl]-5-(2,2,3,3,3-pentafluoropropyl)pyrimidine-2,4-dione
@<TRIPOS>ATOM
      1 C1         -2.1420    3.1637   -2.7382 C.2       1 <0>         0.2165
      2 C2         -2.7748    4.0230   -3.5655 C.2       1 <0>        -0.2874
      3 C3         -4.0937    4.4331   -3.2549 C.2       1 <0>         0.5579
      4 O1         -4.6828    5.2115   -3.9830 O.2       1 <0>        -0.4968
      5 N1         -4.6915    3.9541   -2.1452 N.am      1 <0>        -0.6591
      6 H1         -5.6230    4.2389   -1.9190 H         1 <0>         0.4428
      7 C4         -4.0394    3.0942   -1.3408 C.2       1 <0>         0.6934
      8 O2         -4.5912    2.6703   -0.3438 O.2       1 <0>        -0.4923
      9 N2         -2.7858    2.6967   -1.6248 N.am      1 <0>        -0.5297
     10 C5         -2.1016    1.7597   -0.7304 C.3       1 <0>         0.3168
     11 H2         -2.6277    0.8056   -0.7006 H         1 <0>         0.1252
     12 C6         -1.9753    2.3580    0.6938 C.3       1 <0>         0.0785
     13 H3         -1.7770    3.4289    0.6497 H         1 <0>         0.0896
     14 C7         -0.7544    1.5929    1.2600 C.3       1 <0>         0.0450
     15 H4         -1.0812    0.7548    1.8754 H         1 <0>         0.0988
     16 C8         -0.0127    1.0858    0.0080 C.3       1 <0>         0.0542
     17 H5          0.0021   -0.0041    0.0020 H         1 <0>         0.0994
     18 O3         -0.7267    1.5713   -1.1413 O.3       1 <0>        -0.3496
     19 C9          1.4190    1.6254   -0.0028 C.3       1 <0>         0.0787
     20 O4          2.1314    1.0635   -1.1067 O.3       1 <0>        -0.5646
     21 O5          0.0825    2.4705    2.0159 O.3       1 <0>        -0.5500
     22 O6         -3.1478    2.0897    1.4654 O.3       1 <0>        -0.5173
     23 C10        -2.0838    4.5437   -4.7994 C.3       1 <0>        -0.0852
     24 C11        -2.4737    3.6840   -6.0034 C.3       1 <0>         0.2635
     25 C12        -1.7722    4.2127   -7.2561 C.3       1 <0>         0.4269
     26 F1         -0.3864    4.1576   -7.0729 F         1 <0>        -0.1583
     27 F2         -2.1287    3.4265   -8.3571 F         1 <0>        -0.1608
     28 F3         -2.1602    5.5374   -7.4839 F         1 <0>        -0.1547
     29 F4         -2.0857    2.3593   -5.7757 F         1 <0>        -0.1630
     30 F5         -3.8596    3.7391   -6.1866 F         1 <0>        -0.1519
     31 H6         -1.1341    2.8431   -2.9567 H         1 <0>         0.1890
     32 H7          1.3974    2.7109   -0.0988 H         1 <0>         0.0660
     33 H8          1.9170    1.3528    0.9277 H         1 <0>         0.0639
     34 H9          3.0486    1.3621   -1.1759 H         1 <0>         0.3871
     35 H10         0.8913    2.0555    2.3458 H         1 <0>         0.3873
     36 H11        -3.0818    2.3653    2.3900 H         1 <0>         0.3861
     37 H12        -2.3861    5.5759   -4.9768 H         1 <0>         0.1303
     38 H13        -1.0041    4.5008   -4.6566 H         1 <0>         0.1237
@<TRIPOS>BOND
     1    1    9 1
     2    1    2 2
     3    1   31 1
     4    2    3 1
     5    2   23 1
     6    3    4 2
     7    3    5 am
     8    5    6 1
     9    5    7 am
    10    7    8 2
    11    7    9 am
    12    9   10 1
    13   10   11 1
    14   10   18 1
    15   10   12 1
    16   12   13 1
    17   12   14 1
    18   12   22 1
    19   14   15 1
    20   14   16 1
    21   14   21 1
    22   16   17 1
    23   16   18 1
    24   16   19 1
    25   19   20 1
    26   19   32 1
    27   19   33 1
    28   20   34 1
    29   21   35 1
    30   22   36 1
    31   23   24 1
    32   23   37 1
    33   23   38 1
    34   24   25 1
    35   24   29 1
    36   24   30 1
    37   25   26 1
    38   25   27 1
    39   25   28 1
@<TRIPOS>MOLECULE
ZINC42924450
   45    46     0     0     0
SMALL
USER_CHARGES

@<TRIPOS>ATOM
      1 C1         -0.1515    1.3843    0.6973 C.ar      1 <0>        -0.0590
      2 C2          0.9884    2.1461    0.8447 C.ar      1 <0>        -0.0312
      3 C3          2.2243    1.6207    0.5099 C.ar      1 <0>        -0.6643
      4 C4          2.3266    0.3282    0.0256 C.ar      1 <0>        -0.0318
      5 C5          1.1960   -0.4463   -0.1269 C.ar      1 <0>        -0.1203
      6 C6         -0.0563    0.0776    0.2087 C.ar      1 <0>        -0.0136
      7 C7         -1.2683   -0.7426    0.0489 C.2       1 <0>        -0.0328
      8 C8         -2.3874   -0.1977   -0.4687 C.2       1 <0>        -0.2007
      9 C9         -2.3353    1.1238   -1.0973 C.2       1 <0>         0.5341
     10 O1         -1.2635    1.6739   -1.2693 O.2       1 <0>        -0.5246
     11 N1         -3.4743    1.7309   -1.4853 N.am      1 <0>        -0.7241
     12 C10        -3.4221    3.0531   -2.1141 C.3       1 <0>         0.1176
     13 C11        -4.8412    3.5120   -2.4550 C.3       1 <0>        -0.1180
     14 C12        -4.7867    4.8928   -3.1118 C.3       1 <0>        -0.1404
     15 C13        -6.1846    5.3449   -3.4476 C.2       1 <0>         0.5166
     16 O2         -7.1312    4.6328   -3.1873 O.2       1 <0>        -0.5439
     17 N2         -6.3828    6.5405   -4.0372 N.am      1 <0>        -0.8571
     18 S1          3.6749    2.6026    0.7007 S.o2      1 <0>         2.6959
     19 O3          4.6438    2.0738   -0.1943 O.2       1 <0>        -0.9534
     20 O4          3.2557    3.9596    0.6548 O.2       1 <0>        -0.9565
     21 N3          4.2488    2.3360    2.2310 N.pl3     1 <0>        -1.0882
     22 C14         4.7389    1.0080    2.6085 C.3       1 <0>         0.0808
     23 C15         4.5183    0.5583    4.0542 C.3       1 <0>        -0.1883
     24 C16         5.9210    0.9404    3.5775 C.3       1 <0>        -0.1843
     25 H1         -1.1147    1.7943    0.9628 H         1 <0>         0.1222
     26 H2          0.9166    3.1555    1.2219 H         1 <0>         0.1364
     27 H3          3.2945   -0.0747   -0.2338 H         1 <0>         0.1386
     28 H4          1.2774   -1.4545   -0.5052 H         1 <0>         0.1328
     29 H5         -1.2608   -1.7808    0.3462 H         1 <0>         0.1454
     30 H6         -3.3225   -0.7358   -0.4198 H         1 <0>         0.1395
     31 H7         -4.3286    1.2925   -1.3481 H         1 <0>         0.4032
     32 H8         -2.9654    3.7648   -1.4263 H         1 <0>         0.0708
     33 H9         -2.8289    2.9981   -3.0269 H         1 <0>         0.0706
     34 H10        -5.2979    2.8003   -3.1428 H         1 <0>         0.0786
     35 H11        -5.4345    3.5670   -1.5423 H         1 <0>         0.0787
     36 H12        -4.3301    5.6045   -2.4240 H         1 <0>         0.0997
     37 H13        -4.1935    4.8378   -4.0246 H         1 <0>         0.0996
     38 H14        -5.6257    7.1100   -4.2454 H         1 <0>         0.4031
     39 H15        -7.2825    6.8315   -4.2534 H         1 <0>         0.4028
     40 H16         4.2604    3.0591    2.8774 H         1 <0>         0.4195
     41 H17         4.6820    0.2471    1.8301 H         1 <0>         0.1364
     42 H18         4.0086    1.2504    4.7244 H         1 <0>         0.0998
     43 H19         4.3162   -0.4988    4.2271 H         1 <0>         0.1040
     44 H20         6.6417    0.1348    3.4368 H         1 <0>         0.1055
     45 H21         6.3341    1.8840    3.9341 H         1 <0>         0.1005
@<TRIPOS>BOND
     1    1    6 ar
     2    1    2 ar
     3    1   25 1
     4    2    3 ar
     5    2   26 1
     6    3    4 ar
     7    3   18 1
     8    4    5 ar
     9    4   27 1
    10    5    6 ar
    11    5   28 1
    12    6    7 1
    13    7    8 2
    14    7   29 1
    15    8    9 1
    16    8   30 1
    17    9   10 2
    18    9   11 am
    19   11   12 1
    20   11   31 1
    21   12   13 1
    22   12   32 1
    23   12   33 1
    24   13   14 1
    25   13   34 1
    26   13   35 1
    27   14   15 1
    28   14   36 1
    29   14   37 1
    30   15   16 2
    31   15   17 am
    32   17   38 1
    33   17   39 1
    34   18   19 2
    35   18   20 2
    36   18   21 1
    37   21   22 1
    38   21   40 1
    39   22   24 1
    40   22   23 1
    41   22   41 1
    42   23   24 1
    43   23   42 1
    44   23   43 1
    45   24   44 1
    46   24   45 1
@<TRIPOS>MOLECULE
ZINC20548389
   47    50     0     0     0
SMALL
USER_CHARGES

@<TRIPOS>ATOM
      1 C1         -0.0173    1.4248    0.0099 C.3       1 <0>         0.0314
      2 O1          0.0021   -0.0041    0.0020 O.3       1 <0>        -0.3816
      3 C2          0.6518   -0.5703   -1.1379 C.3       1 <0>         0.0423
      4 C3          0.6131   -2.0967   -1.0411 C.3       1 <0>         0.1022
      5 N1         -0.7759   -2.5559   -1.1188 N.am      1 <0>        -0.5647
      6 C4         -1.5505   -2.7041   -0.0381 C.2       1 <0>         0.5336
      7 O2         -1.2095   -2.4819    1.1038 O.2       1 <0>        -0.4512
      8 C5         -2.9178   -3.1909   -0.4623 C.3       1 <0>        -0.1222
      9 H1         -3.7197   -2.5252   -0.1431 H         1 <0>         0.1486
     10 C6         -3.1147   -4.6402    0.0314 C.3       1 <0>         0.1017
     11 H2         -2.1588   -5.0741    0.3249 H         1 <0>         0.0758
     12 N2         -3.6761   -5.3679   -1.1376 N.3       1 <0>        -0.6149
     13 C7         -2.9514   -4.8083   -2.2937 C.3       1 <0>         0.1269
     14 C8         -2.7968   -3.2940   -2.0083 C.3       1 <0>        -0.1031
     15 H3         -3.5336   -2.6834   -2.5301 H         1 <0>         0.1487
     16 C9         -1.3751   -2.8559   -2.2771 C.2       1 <0>         0.5394
     17 O3         -0.8576   -2.7894   -3.3714 O.2       1 <0>        -0.4627
     18 C10        -1.6221   -5.4806   -2.4889 C.ar      1 <0>        -0.1889
     19 C11        -0.5057   -5.6233   -1.6956 C.ar      1 <0>        -0.0558
     20 C12         0.5946   -6.3176   -2.1664 C.ar      1 <0>        -0.1373
     21 C13         0.5701   -6.8676   -3.4351 C.ar      1 <0>        -0.0683
     22 C14        -0.5461   -6.7278   -4.2332 C.ar      1 <0>        -0.1363
     23 C15        -1.6578   -6.0299   -3.7672 C.ar      1 <0>         0.1698
     24 N3         -2.8846   -5.7571   -4.3761 N.am      1 <0>        -0.6593
     25 C16        -3.7012   -5.0442   -3.5768 C.2       1 <0>         0.5560
     26 O4         -4.8230   -4.6655   -3.8402 O.2       1 <0>        -0.4697
     27 C17        -4.0964   -4.6744    1.2044 C.3       1 <0>        -0.1339
     28 C18        -4.1801   -6.0771    1.7488 C.2       1 <0>         0.5228
     29 O5         -3.5195   -6.9624    1.2478 O.2       1 <0>        -0.5464
     30 N4         -4.9889   -6.3479    2.7923 N.am      1 <0>        -0.8541
     31 H4          1.0053    1.8021    0.0021 H         1 <0>         0.0432
     32 H5         -0.5445    1.7859   -0.8732 H         1 <0>         0.0403
     33 H6         -0.5275    1.7763    0.9067 H         1 <0>         0.0883
     34 H7          0.1385   -0.2506   -2.0447 H         1 <0>         0.0556
     35 H8          1.6883   -0.2344   -1.1694 H         1 <0>         0.0703
     36 H9          1.1847   -2.5275   -1.8631 H         1 <0>         0.1112
     37 H10         1.0473   -2.4117   -0.0922 H         1 <0>         0.1057
     38 H11        -3.5160   -6.3608   -1.0565 H         1 <0>         0.3677
     39 H12        -0.4888   -5.1928   -0.7053 H         1 <0>         0.1179
     40 H13         1.4707   -6.4294   -1.5448 H         1 <0>         0.1326
     41 H14         1.4290   -7.4096   -3.8026 H         1 <0>         0.1355
     42 H15        -0.5577   -7.1599   -5.2229 H         1 <0>         0.1311
     43 H16        -3.1210   -6.0469   -5.2712 H         1 <0>         0.4188
     44 H17        -3.7498   -4.0006    1.9880 H         1 <0>         0.1115
     45 H18        -5.0819   -4.3578    0.8628 H         1 <0>         0.1148
     46 H19        -5.5172   -5.6399    3.1929 H         1 <0>         0.4034
     47 H20        -5.0427   -7.2508    3.1426 H         1 <0>         0.4032
@<TRIPOS>BOND
     1    1    2 1
     2    1   31 1
     3    1   32 1
     4    1   33 1
     5    2    3 1
     6    3    4 1
     7    3   34 1
     8    3   35 1
     9    4    5 1
    10    4   36 1
    11    4   37 1
    12    5   16 am
    13    5    6 am
    14    6    7 2
    15    6    8 1
    16    8    9 1
    17    8   14 1
    18    8   10 1
    19   10   11 1
    20   10   12 1
    21   10   27 1
    22   12   13 1
    23   12   38 1
    24   13   25 1
    25   13   14 1
    26   13   18 1
    27   14   15 1
    28   14   16 1
    29   16   17 2
    30   18   23 ar
    31   18   19 ar
    32   19   20 ar
    33   19   39 1
    34   20   21 ar
    35   20   40 1
    36   21   22 ar
    37   21   41 1
    38   22   23 ar
    39   22   42 1
    40   23   24 1
    41   24   25 am
    42   24   43 1
    43   25   26 2
    44   27   28 1
    45   27   44 1
    46   27   45 1
    47   28   29 2
    48   28   30 am
    49   30   46 1
    50   30   47 1
@<TRIPOS>MOLECULE
ZINC60861841
   46    47     0     0     0
SMALL
USER_CHARGES

@<TRIPOS>ATOM
      1 C1          1.3814    1.1571   -0.3028 C.3       1 <0>        -0.1422
      2 C2          1.0959   -0.3455   -0.2619 C.3       1 <0>        -0.1019
      3 C3          1.8104   -0.9679    0.9394 C.3       1 <0>        -0.1456
      4 C4         -0.4113   -0.5749   -0.1339 C.3       1 <0>         0.0934
      5 N1         -0.6955   -2.0098   -0.2146 N.am      1 <0>        -0.5075
      6 C5         -0.9305   -2.5682   -1.4199 C.2       1 <0>         0.5736
      7 O1         -0.9091   -1.8969   -2.4344 O.2       1 <0>        -0.5106
      8 C6         -1.2134   -4.0138   -1.4746 C.2       1 <0>        -0.4364
      9 C7         -1.4632   -4.6551   -2.6733 C.2       1 <0>         0.3504
     10 N2         -1.6137   -3.9361   -3.8040 N.pl3     1 <0>        -0.6558
     11 C8         -1.7572   -4.6186   -5.0923 C.3       1 <0>         0.1265
     12 C9         -1.9092   -3.5957   -6.1885 C.ar      1 <0>        -0.0642
     13 C10        -3.1668   -3.1444   -6.5432 C.ar      1 <0>        -0.1170
     14 C11        -3.3062   -2.2061   -7.5487 C.ar      1 <0>        -0.0215
     15 C12        -2.1880   -1.7187   -8.1991 C.ar      1 <0>        -0.6640
     16 C13        -0.9304   -2.1693   -7.8437 C.ar      1 <0>        -0.0155
     17 C14        -0.7907   -3.1044   -6.8353 C.ar      1 <0>        -0.1144
     18 S1         -2.3658   -0.5235   -9.4815 S.o2      1 <0>         2.7009
     19 O2         -1.2108   -0.6334  -10.3020 O.2       1 <0>        -0.9582
     20 O3         -3.6823   -0.6721   -9.9954 O.2       1 <0>        -0.9560
     21 N3         -2.3010    0.9707   -8.7707 N.pl3     1 <0>        -1.2466
     22 C15        -1.2178   -4.7456   -0.1951 C.2       1 <0>         0.5771
     23 O4         -1.4428   -5.9408   -0.1596 O.2       1 <0>        -0.4975
     24 N4         -0.9653   -4.0544    0.9355 N.am      1 <0>        -0.6170
     25 C16        -0.7105   -2.7387    0.9102 C.2       1 <0>         0.5330
     26 S2         -0.3945   -1.9456    2.3941 S.2       1 <0>        -0.5120
     27 H1          2.4553    1.3205   -0.3941 H         1 <0>         0.0623
     28 H2          0.8724    1.6004   -1.1587 H         1 <0>         0.0563
     29 H3          1.0200    1.6207    0.6151 H         1 <0>         0.0637
     30 H4          1.4573   -0.8091   -1.1798 H         1 <0>         0.0678
     31 H5          1.4490   -0.5042    1.8573 H         1 <0>         0.0845
     32 H6          1.6070   -2.0383    0.9685 H         1 <0>         0.0438
     33 H7          2.8842   -0.8044    0.8482 H         1 <0>         0.0474
     34 H8         -0.7573   -0.1894    0.8252 H         1 <0>         0.1269
     35 H9         -0.9277   -0.0563   -0.9416 H         1 <0>         0.1019
     36 H10        -1.5377   -5.7321   -2.7042 H         1 <0>         0.1821
     37 H11        -1.6269   -2.9670   -3.7643 H         1 <0>         0.4269
     38 H12        -0.8723   -5.2260   -5.2823 H         1 <0>         0.1013
     39 H13        -2.6390   -5.2589   -5.0680 H         1 <0>         0.1020
     40 H14        -4.0404   -3.5253   -6.0351 H         1 <0>         0.1391
     41 H15        -4.2887   -1.8541   -7.8264 H         1 <0>         0.1490
     42 H16        -0.0568   -1.7887   -8.3521 H         1 <0>         0.1488
     43 H17         0.1921   -3.4537   -6.5551 H         1 <0>         0.1388
     44 H18        -1.9509    1.7283   -9.2651 H         1 <0>         0.4239
     45 H19        -2.6132    1.0884   -7.8598 H         1 <0>         0.4178
     46 H20        -0.9648   -4.5209    1.7859 H         1 <0>         0.4446
@<TRIPOS>BOND
     1    1    2 1
     2    1   27 1
     3    1   28 1
     4    1   29 1
     5    2    3 1
     6    2    4 1
     7    2   30 1
     8    3   31 1
     9    3   32 1
    10    3   33 1
    11    4    5 1
    12    4   34 1
    13    4   35 1
    14    5   25 1
    15    5    6 am
    16    6    7 2
    17    6    8 1
    18    8    9 2
    19    8   22 1
    20    9   10 1
    21    9   36 1
    22   10   11 1
    23   10   37 1
    24   11   12 1
    25   11   38 1
    26   11   39 1
    27   12   17 ar
    28   12   13 ar
    29   13   14 ar
    30   13   40 1
    31   14   15 ar
    32   14   41 1
    33   15   16 ar
    34   15   18 1
    35   16   17 ar
    36   16   42 1
    37   17   43 1
    38   18   19 2
    39   18   20 2
    40   18   21 1
    41   21   44 1
    42   21   45 1
    43   22   23 2
    44   22   24 am
    45   24   25 1
    46   24   46 1
    47   25   26 2
@<TRIPOS>MOLECULE
ZINC66626093
   42    44     0     0     0
SMALL
USER_CHARGES

@<TRIPOS>ATOM
      1 C1         -0.0910    1.0708    0.0116 C.3       1 <0>         0.0682
      2 N1         -0.7985    1.5611   -1.1739 N.pl3     1 <0>        -0.4884
      3 C2         -0.9977    2.8792   -1.5032 C.2       1 <0>         0.2675
      4 N2         -1.6595    2.9370   -2.6138 N.2       1 <0>        -0.2746
      5 N3         -1.9108    1.6257   -3.0407 N.pl3     1 <0>        -0.4675
      6 C3         -1.3600    0.7952   -2.1308 C.2       1 <0>         0.4713
      7 S1         -1.3752   -0.9160   -2.1803 S.2       1 <0>        -0.5583
      8 C4         -0.5237    4.0644   -0.7021 C.3       1 <0>         0.2033
      9 N4         -0.9274    5.3015   -1.3750 N.am      1 <0>        -0.7268
     10 C5         -0.6100    6.4958   -0.8369 C.2       1 <0>         0.5718
     11 O1          0.0114    6.5464    0.2070 O.2       1 <0>        -0.5307
     12 C6         -1.0166    7.7421   -1.5148 C.ar      1 <0>        -0.1593
     13 C7         -1.7358    7.6857   -2.7118 C.ar      1 <0>        -0.0620
     14 C8         -2.1140    8.8501   -3.3413 C.ar      1 <0>        -0.1286
     15 C9         -1.7809   10.0821   -2.7872 C.ar      1 <0>         0.1964
     16 C10        -1.0645   10.1418   -1.5959 C.ar      1 <0>        -0.1559
     17 C11        -0.6883    8.9813   -0.9582 C.ar      1 <0>        -0.0326
     18 N5         -2.1655   11.2595   -3.4274 N.am      1 <0>        -0.6852
     19 C12        -2.1904   11.3174   -4.7737 C.2       1 <0>         0.7084
     20 O2         -1.9585   10.3202   -5.4294 O.2       1 <0>        -0.5656
     21 N6         -2.4723   12.4807   -5.3931 N.am      1 <0>        -0.7104
     22 C13        -2.4994   12.5436   -6.8565 C.3       1 <0>         0.0944
     23 C14        -1.8285   13.7455   -7.5245 C.3       1 <0>        -0.1924
     24 C15        -3.3544   13.6366   -7.5009 C.3       1 <0>        -0.1879
     25 H1         -0.0856   -0.0192    0.0065 H         1 <0>         0.1229
     26 H2          0.9347    1.4393    0.0009 H         1 <0>         0.0958
     27 H3         -0.5959    1.4274    0.9093 H         1 <0>         0.0958
     28 H4         -2.3887    1.3639   -3.8432 H         1 <0>         0.4718
     29 H5         -0.9669    4.0309    0.2932 H         1 <0>         0.1135
     30 H6          0.5626    4.0347   -0.6173 H         1 <0>         0.1134
     31 H7         -1.4230    5.2612   -2.2078 H         1 <0>         0.4137
     32 H8         -1.9944    6.7297   -3.1426 H         1 <0>         0.1296
     33 H9         -2.6695    8.8072   -4.2665 H         1 <0>         0.1492
     34 H10        -0.8070   11.0998   -1.1688 H         1 <0>         0.1352
     35 H11        -0.1364    9.0283   -0.0311 H         1 <0>         0.1429
     36 H12        -2.4151   12.0370   -2.9038 H         1 <0>         0.4109
     37 H13        -2.6573   13.2763   -4.8699 H         1 <0>         0.4004
     38 H14        -2.4392   11.5837   -7.3695 H         1 <0>         0.1419
     39 H15        -1.3669   14.4894   -6.8751 H         1 <0>         0.0977
     40 H16        -1.3265   13.5765   -8.4771 H         1 <0>         0.1053
     41 H17        -3.8564   13.3959   -8.4380 H         1 <0>         0.1067
     42 H18        -3.8968   14.3088   -6.8360 H         1 <0>         0.0982
@<TRIPOS>BOND
     1    1   25 1
     2    1   26 1
     3    1   27 1
     4    1    2 1
     5    2    6 1
     6    2    3 1
     7    3    8 1
     8    3    4 2
     9    4    5 1
    10    5    6 1
    11    5   28 1
    12    6    7 2
    13    8    9 1
    14    8   29 1
    15    8   30 1
    16    9   10 am
    17    9   31 1
    18   10   11 2
    19   10   12 1
    20   12   17 ar
    21   12   13 ar
    22   13   14 ar
    23   13   32 1
    24   14   15 ar
    25   14   33 1
    26   15   16 ar
    27   15   18 1
    28   16   17 ar
    29   16   34 1
    30   17   35 1
    31   18   19 am
    32   18   36 1
    33   19   20 2
    34   19   21 am
    35   21   22 1
    36   21   37 1
    37   22   24 1
    38   22   23 1
    39   22   38 1
    40   23   24 1
    41   23   39 1
    42   23   40 1
    43   24   41 1
    44   24   42 1
@<TRIPOS>MOLECULE
ZINC04096936
   42    43     0     0     0
SMALL
USER_CHARGES
2-(hydroxymethyl)-6-[4-(3-hydroxyprop-1-enyl)phenoxy]-tetrahydropyran-3,4,5-triol
@<TRIPOS>ATOM
      1 C1         -2.0980    2.7905    3.5748 C.ar      1 <0>        -0.0728
      2 C2         -2.7376    3.2343    4.7126 C.ar      1 <0>        -0.1779
      3 C3         -2.1921    4.2709    5.4583 C.ar      1 <0>         0.1248
      4 C4         -0.9981    4.8606    5.0647 C.ar      1 <0>        -0.1445
      5 C5         -0.3499    4.4189    3.9311 C.ar      1 <0>        -0.0720
      6 C6         -0.8950    3.3771    3.1789 C.ar      1 <0>        -0.0897
      7 C7         -0.2033    2.9005    1.9631 C.2       1 <0>        -0.1009
      8 C8         -0.7227    1.9108    1.2498 C.2       1 <0>        -0.1516
      9 C9         -0.0173    1.4248    0.0099 C.3       1 <0>         0.1056
     10 O1          0.0021   -0.0041    0.0020 O.3       1 <0>        -0.5711
     11 O2         -2.8280    4.7090    6.5761 O.3       1 <0>        -0.2968
     12 C10        -4.0518    4.0582    6.9235 C.3       1 <0>         0.2253
     13 H1         -3.8826    2.9843    7.0030 H         1 <0>         0.0773
     14 C11        -4.5532    4.5967    8.2660 C.3       1 <0>         0.0611
     15 H2         -4.6839    5.6767    8.1994 H         1 <0>         0.0875
     16 C12        -5.8951    3.9387    8.6021 C.3       1 <0>         0.0858
     17 H3         -5.7564    2.8639    8.7189 H         1 <0>         0.0792
     18 C13        -6.8827    4.2071    7.4624 C.3       1 <0>         0.0900
     19 H4         -7.0615    5.2791    7.3790 H         1 <0>         0.0814
     20 C14        -6.2912    3.6834    6.1511 C.3       1 <0>         0.1079
     21 H5         -6.1514    2.6046    6.2204 H         1 <0>         0.0833
     22 O3         -5.0304    4.3130    5.9138 O.3       1 <0>        -0.3708
     23 C15        -7.2453    4.0014    4.9981 C.3       1 <0>         0.0906
     24 O4         -6.7497    3.4131    3.7937 O.3       1 <0>        -0.5657
     25 O5         -8.1158    3.5368    7.7313 O.3       1 <0>        -0.5493
     26 O6         -6.4065    4.4896    9.8175 O.3       1 <0>        -0.5538
     27 O7         -3.6023    4.2916    9.2881 O.3       1 <0>        -0.5537
     28 H6         -2.5252    1.9871    2.9929 H         1 <0>         0.1291
     29 H7         -3.6663    2.7781    5.0219 H         1 <0>         0.1323
     30 H8         -0.5770    5.6666    5.6472 H         1 <0>         0.1330
     31 H9          0.5787    4.8780    3.6256 H         1 <0>         0.1333
     32 H10         0.7252    3.3584    1.6555 H         1 <0>         0.1206
     33 H11        -1.6512    1.4529    1.5573 H         1 <0>         0.1198
     34 H12         1.0053    1.8021    0.0021 H         1 <0>         0.0526
     35 H13        -0.5445    1.7859   -0.8732 H         1 <0>         0.0583
     36 H14         0.4417   -0.3872   -0.7693 H         1 <0>         0.3826
     37 H15        -8.2323    3.5962    5.2210 H         1 <0>         0.0789
     38 H16        -7.3159    5.0818    4.8723 H         1 <0>         0.0575
     39 H17        -7.3059    3.5744    3.0194 H         1 <0>         0.3853
     40 H18        -8.5471    3.8198    8.5493 H         1 <0>         0.3956
     41 H19        -5.8306    4.3561   10.5828 H         1 <0>         0.3961
     42 H20        -2.7267    4.6733    9.1373 H         1 <0>         0.3959
@<TRIPOS>BOND
     1    1    6 ar
     2    1    2 ar
     3    1   28 1
     4    2    3 ar
     5    2   29 1
     6    3    4 ar
     7    3   11 1
     8    4    5 ar
     9    4   30 1
    10    5    6 ar
    11    5   31 1
    12    6    7 1
    13    7    8 2
    14    7   32 1
    15    8    9 1
    16    8   33 1
    17    9   10 1
    18    9   34 1
    19    9   35 1
    20   10   36 1
    21   11   12 1
    22   12   13 1
    23   12   22 1
    24   12   14 1
    25   14   15 1
    26   14   16 1
    27   14   27 1
    28   16   17 1
    29   16   18 1
    30   16   26 1
    31   18   19 1
    32   18   20 1
    33   18   25 1
    34   20   21 1
    35   20   22 1
    36   20   23 1
    37   23   24 1
    38   23   37 1
    39   23   38 1
    40   24   39 1
    41   25   40 1
    42   26   41 1
    43   27   42 1
@<TRIPOS>MOLECULE
ZINC21036067
   47    49     0     0     0
SMALL
USER_CHARGES
2-[(4-amino-5-hydrazino-1,2,4-triazol-3-yl)sulfanyl]-1-(6,7-dimethoxy-3,4-dihydro-1H-isoquinolin-2-yl)ethanone
@<TRIPOS>ATOM
      1 C1          5.7008    3.0527   -2.2403 C.3       1 <0>         0.0220
      2 O1          5.3646    1.7979   -2.8359 O.3       1 <0>        -0.3048
      3 C2          4.2083    1.2105   -2.4268 C.ar      1 <0>         0.1076
      4 C3          3.4154    1.8251   -1.4756 C.ar      1 <0>        -0.1740
      5 C4          2.2319    1.2332   -1.0506 C.ar      1 <0>        -0.0634
      6 C5          1.8423    0.0266   -1.5887 C.ar      1 <0>        -0.0965
      7 C6          2.6365   -0.5963   -2.5421 C.ar      1 <0>        -0.1663
      8 C7          3.8170   -0.0122   -2.9639 C.ar      1 <0>         0.1038
      9 O2          4.5905   -0.6288   -3.8971 O.3       1 <0>        -0.3047
     10 C8          4.1234   -1.8814   -4.4021 C.3       1 <0>         0.0211
     11 C9          0.5638   -0.6629   -1.1819 C.3       1 <0>         0.1474
     12 N1          0.0021   -0.0041    0.0020 N.am      1 <0>        -0.6055
     13 C10        -0.0179    1.4682    0.0101 C.3       1 <0>         0.1106
     14 C11         1.4296    1.9568   -0.0011 C.3       1 <0>        -0.0942
     15 C12        -0.4761   -0.7175    1.0407 C.2       1 <0>         0.5446
     16 O3         -0.9349   -0.1474    2.0079 O.2       1 <0>        -0.5209
     17 C13        -0.4407   -2.2235    1.0003 C.3       1 <0>        -0.1449
     18 S1         -1.1503   -2.8863    2.5325 S.3       1 <0>         0.0688
     19 C14        -1.0380   -4.6334    2.3335 C.2       1 <0>         0.1713
     20 N2         -0.5496   -5.2605    1.2910 N.2       1 <0>        -0.3053
     21 N3         -0.6418   -6.6375    1.5320 N.2       1 <0>        -0.3376
     22 C15        -1.1907   -6.8068    2.7097 C.2       1 <0>         0.4834
     23 N4         -1.4501   -5.5732    3.2363 N.pl3     1 <0>        -0.2663
     24 N5         -2.0211   -5.3229    4.4517 N.3       1 <0>        -0.7785
     25 N6         -1.4613   -8.0266    3.3164 N.pl3     1 <0>        -0.5799
     26 N7         -1.1494   -9.1921    2.6759 N.3       1 <0>        -0.5542
     27 H1          6.6524    3.4135   -2.6578 H         1 <0>         0.1037
     28 H2          5.8021    2.9267   -1.1522 H         1 <0>         0.0564
     29 H3          4.9067    3.7837   -2.4524 H         1 <0>         0.0566
     30 H4          3.7188    2.7740   -1.0585 H         1 <0>         0.1366
     31 H5          2.3299   -1.5448   -2.9577 H         1 <0>         0.1393
     32 H6          4.8383   -2.2673   -5.1437 H         1 <0>         0.1037
     33 H7          3.1414   -1.7418   -4.8776 H         1 <0>         0.0570
     34 H8          4.0310   -2.5992   -3.5737 H         1 <0>         0.0577
     35 H9         -0.1608   -0.6086   -2.0077 H         1 <0>         0.0898
     36 H10         0.7742   -1.7168   -0.9474 H         1 <0>         0.0995
     37 H11        -0.5499    1.8326   -0.8811 H         1 <0>         0.0801
     38 H12        -0.5328    1.8230    0.9151 H         1 <0>         0.1038
     39 H13         1.8724    1.7746    0.9892 H         1 <0>         0.0840
     40 H14         1.4372    3.0361   -0.2132 H         1 <0>         0.0903
     41 H15        -1.0261   -2.5811    0.1404 H         1 <0>         0.1294
     42 H16         0.6008   -2.5633    0.9016 H         1 <0>         0.1291
     43 H17        -2.3167   -6.1586    5.1030 H         1 <0>         0.4358
     44 H18        -2.1853   -4.2857    4.7791 H         1 <0>         0.4478
     45 H19        -1.9268   -8.0541    4.3127 H         1 <0>         0.4247
     46 H20        -1.4357  -10.0457    3.3078 H         1 <0>         0.3580
     47 H21        -1.6943   -9.2432    1.7217 H         1 <0>         0.3332
@<TRIPOS>BOND
     1    1    2 1
     2    1   27 1
     3    1   28 1
     4    1   29 1
     5    2    3 1
     6    3    8 ar
     7    3    4 ar
     8    4    5 ar
     9    4   30 1
    10    5   14 1
    11    5    6 ar
    12    6    7 ar
    13    6   11 1
    14    7    8 ar
    15    7   31 1
    16    8    9 1
    17    9   10 1
    18   10   32 1
    19   10   33 1
    20   10   34 1
    21   11   12 1
    22   11   35 1
    23   11   36 1
    24   12   13 1
    25   12   15 am
    26   13   14 1
    27   13   37 1
    28   13   38 1
    29   14   39 1
    30   14   40 1
    31   15   16 2
    32   15   17 1
    33   17   18 1
    34   17   41 1
    35   17   42 1
    36   18   19 1
    37   19   23 1
    38   19   20 2
    39   20   21 1
    40   21   22 2
    41   22   23 1
    42   22   25 1
    43   23   24 1
    44   24   43 1
    45   24   44 1
    46   25   26 1
    47   25   45 1
    48   26   46 1
    49   26   47 1
@<TRIPOS>MOLECULE
ZINC37556339
   34    35     0     0     0
SMALL
USER_CHARGES

@<TRIPOS>ATOM
      1 C1         -0.0164    1.3568    0.0095 C.2       1 <0>        -0.0665
      2 C2          1.1938    2.0685    0.0018 C.2       1 <0>        -0.1539
      3 C3          2.3716    1.4083   -0.0135 C.2       1 <0>         0.0712
      4 N1          2.4036    0.0447   -0.0216 N.pl3     1 <0>        -0.3047
      5 C4          1.2390   -0.6775   -0.0139 C.2       1 <0>         0.3023
      6 C5          0.0021   -0.0041    0.0020 C.2       1 <0>        -0.1067
      7 N2          1.5517   -1.9672   -0.0251 N.2       1 <0>        -0.5238
      8 C6          2.8829   -2.0971   -0.0398 C.2       1 <0>         0.4622
      9 C7          3.4363   -0.8573   -0.0379 C.2       1 <0>        -0.7220
     10 S1          5.1571   -0.4788   -0.0540 S.o2      1 <0>         2.7349
     11 O1          5.8153   -1.6045   -0.6186 O.2       1 <0>        -0.9524
     12 O2          5.2804    0.8280   -0.5985 O.2       1 <0>        -0.9583
     13 N3          5.6522   -0.3829    1.5233 N.pl3     1 <0>        -1.1192
     14 C8          5.6195   -1.5745    2.3750 C.3       1 <0>         0.1293
     15 C9          6.4556   -1.3259    3.6321 C.3       1 <0>        -0.1505
     16 C10         6.4220   -2.5516    4.5081 C.2       1 <0>         0.5188
     17 O3          5.7915   -3.5279    4.1612 O.2       1 <0>        -0.5358
     18 N4          7.0927   -2.5630    5.6771 N.am      1 <0>        -0.8549
     19 N5          3.5870   -3.3078   -0.0539 N.pl3     1 <0>        -0.5570
     20 N6          2.9078   -4.4930   -0.0539 N.3       1 <0>        -0.5933
     21 H1         -0.9573    1.8867    0.0258 H         1 <0>         0.1504
     22 H2          1.1827    3.1485    0.0077 H         1 <0>         0.1595
     23 H3          3.2969    1.9652   -0.0197 H         1 <0>         0.1786
     24 H4         -0.9226   -0.5620    0.0075 H         1 <0>         0.1579
     25 H5          5.9637    0.4622    1.8834 H         1 <0>         0.4195
     26 H6          4.5897   -1.7892    2.6602 H         1 <0>         0.0779
     27 H7          6.0296   -2.4234    1.8279 H         1 <0>         0.0879
     28 H8          7.4855   -1.1112    3.3469 H         1 <0>         0.1072
     29 H9          6.0455   -0.4770    4.1791 H         1 <0>         0.1048
     30 H10         7.5969   -1.7822    5.9546 H         1 <0>         0.4029
     31 H11         7.0711   -3.3519    6.2410 H         1 <0>         0.4049
     32 H12         4.5570   -3.3047   -0.0637 H         1 <0>         0.4234
     33 H13         2.2637   -4.5406   -0.8291 H         1 <0>         0.3442
     34 H14         3.5453   -5.2751   -0.0648 H         1 <0>         0.3614
@<TRIPOS>BOND
     1    1    6 2
     2    1    2 1
     3    1   21 1
     4    2    3 2
     5    2   22 1
     6    3    4 1
     7    3   23 1
     8    4    9 1
     9    4    5 1
    10    5    6 1
    11    5    7 2
    12    6   24 1
    13    7    8 1
    14    8    9 2
    15    8   19 1
    16    9   10 1
    17   10   11 2
    18   10   12 2
    19   10   13 1
    20   13   14 1
    21   13   25 1
    22   14   15 1
    23   14   26 1
    24   14   27 1
    25   15   16 1
    26   15   28 1
    27   15   29 1
    28   16   17 2
    29   16   18 am
    30   18   30 1
    31   18   31 1
    32   19   20 1
    33   19   32 1
    34   20   33 1
    35   20   34 1
@<TRIPOS>MOLECULE
ZINC44699658
   43    45     0     0     0
SMALL
USER_CHARGES

@<TRIPOS>ATOM
      1 C1         -0.0165    1.3620    0.0095 C.ar      1 <0>        -0.1426
      2 C2          1.1697    2.0834    0.0021 C.ar      1 <0>        -0.1001
      3 C3          2.3856    1.4362   -0.0134 C.ar      1 <0>        -0.1273
      4 C4          2.4281    0.0456   -0.0212 C.ar      1 <0>         0.0952
      5 C5          1.2234   -0.6807   -0.0132 C.ar      1 <0>        -0.0892
      6 C6          0.0021   -0.0041    0.0020 C.ar      1 <0>        -0.0739
      7 C7          1.6036   -2.0953   -0.0245 C.2       1 <0>        -0.1750
      8 C8          2.9451   -2.1410   -0.0380 C.2       1 <0>         0.0810
      9 N1          3.4551   -0.8713   -0.0363 N.pl3     1 <0>        -0.5915
     10 H1          4.3995   -0.6501   -0.0442 H         1 <0>         0.4183
     11 C9          0.6664   -3.2754   -0.0210 C.3       1 <0>        -0.0294
     12 C10         0.2425   -3.5844   -1.4338 C.2       1 <0>         0.4597
     13 O1          0.6588   -2.9150   -2.3495 O.2       1 <0>        -0.4717
     14 O2         -0.5974   -4.6033   -1.6749 O.3       1 <0>        -0.3419
     15 C11        -0.9569   -4.8392   -3.0377 C.3       1 <0>         0.2336
     16 H2         -1.2825   -3.9047   -3.4947 H         1 <0>         0.0718
     17 C12        -2.0962   -5.8601   -3.0958 C.3       1 <0>         0.0658
     18 H3         -2.9743   -5.4550   -2.5927 H         1 <0>         0.0733
     19 C13        -2.4350   -6.1526   -4.5607 C.3       1 <0>         0.0791
     20 H4         -2.7931   -5.2421   -5.0410 H         1 <0>         0.0806
     21 C14        -1.1740   -6.6474   -5.2759 C.3       1 <0>         0.0901
     22 H5         -1.3926   -6.8055   -6.3320 H         1 <0>         0.0756
     23 C15        -0.0703   -5.5961   -5.1336 C.3       1 <0>         0.1143
     24 H6         -0.3842   -4.6716   -5.6182 H         1 <0>         0.0810
     25 O3          0.1740   -5.3482   -3.7476 O.3       1 <0>        -0.3586
     26 C16         1.2110   -6.1089   -5.7941 C.3       1 <0>         0.0902
     27 O4          2.2056   -5.0833   -5.7642 O.3       1 <0>        -0.5655
     28 O5         -0.7430   -7.8767   -4.6883 O.3       1 <0>        -0.5289
     29 O6         -3.4488   -7.1576   -4.6254 O.3       1 <0>        -0.5461
     30 O7         -1.6893   -7.0672   -2.4482 O.3       1 <0>        -0.5213
     31 H7         -0.9613    1.8849    0.0259 H         1 <0>         0.1225
     32 H8          1.1388    3.1630    0.0081 H         1 <0>         0.1257
     33 H9          3.3028    2.0064   -0.0198 H         1 <0>         0.1205
     34 H10        -0.9246   -0.5587    0.0082 H         1 <0>         0.1174
     35 H11         3.5346   -3.0459   -0.0490 H         1 <0>         0.1720
     36 H12         1.1742   -4.1414    0.4036 H         1 <0>         0.1148
     37 H13        -0.2127   -3.0396    0.5787 H         1 <0>         0.1127
     38 H14         1.5739   -6.9829   -5.2533 H         1 <0>         0.0686
     39 H15         1.0022   -6.3824   -6.8284 H         1 <0>         0.0641
     40 H16         3.0467   -5.3392   -6.1670 H         1 <0>         0.3822
     41 H17        -1.3967   -8.5874   -4.7391 H         1 <0>         0.3848
     42 H18        -4.2744   -6.9123   -4.1858 H         1 <0>         0.3868
     43 H19        -1.4552   -6.9542   -1.5168 H         1 <0>         0.3810
@<TRIPOS>BOND
     1    1    6 ar
     2    1    2 ar
     3    1   31 1
     4    2    3 ar
     5    2   32 1
     6    3    4 ar
     7    3   33 1
     8    4    9 1
     9    4    5 ar
    10    5    6 ar
    11    5    7 1
    12    6   34 1
    13    7    8 2
    14    7   11 1
    15    8    9 1
    16    8   35 1
    17    9   10 1
    18   11   12 1
    19   11   36 1
    20   11   37 1
    21   12   13 2
    22   12   14 1
    23   14   15 1
    24   15   16 1
    25   15   25 1
    26   15   17 1
    27   17   18 1
    28   17   19 1
    29   17   30 1
    30   19   20 1
    31   19   21 1
    32   19   29 1
    33   21   22 1
    34   21   23 1
    35   21   28 1
    36   23   24 1
    37   23   25 1
    38   23   26 1
    39   26   27 1
    40   26   38 1
    41   26   39 1
    42   27   40 1
    43   28   41 1
    44   29   42 1
    45   30   43 1
@<TRIPOS>MOLECULE
ZINC51119055
   32    32     0     0     0
SMALL
USER_CHARGES

@<TRIPOS>ATOM
      1 C1         -0.1502    1.4558   -0.0583 C.3       1 <0>         0.0847
      2 N1         -0.1200   -0.0088   -0.0617 N.am      1 <0>        -0.7352
      3 C2          0.4886   -0.6680   -1.0675 C.2       1 <0>         0.5156
      4 O1          1.0112   -0.0486   -1.9698 O.2       1 <0>        -0.5319
      5 C3          0.5198   -2.1747   -1.0709 C.3       1 <0>        -0.1559
      6 C4          1.2652   -2.6665   -2.3132 C.3       1 <0>         0.1332
      7 N2          1.2955   -4.1312   -2.3166 N.am      1 <0>        -0.7232
      8 C5          1.9041   -4.7904   -3.3224 C.2       1 <0>         0.5822
      9 O2          2.4280   -4.1693   -4.2271 O.2       1 <0>        -0.5451
     10 C6          1.9345   -6.2643   -3.3257 C.ar      1 <0>        -0.2671
     11 C7          1.4457   -6.9897   -2.2329 C.ar      1 <0>         0.0372
     12 C8          1.4965   -8.3718   -2.2855 C.ar      1 <0>        -0.2255
     13 C9          2.0237   -8.9923   -3.4053 C.ar      1 <0>         0.2220
     14 N3          2.4794   -8.2905   -4.4243 N.ar      1 <0>        -0.5202
     15 C10         2.4494   -6.9666   -4.4284 C.ar      1 <0>         0.4684
     16 N4          2.9331   -6.2713   -5.5217 N.pl3     1 <0>        -0.5359
     17 N5          3.3298   -6.9475   -6.6403 N.3       1 <0>        -0.6025
     18 Br1         0.8516   -9.4047   -0.8388 Br        1 <0>        -0.0335
     19 H1          0.8696    1.8403   -0.0461 H         1 <0>         0.0618
     20 H2         -0.6616    1.8107   -0.9532 H         1 <0>         0.0616
     21 H3         -0.6813    1.8062    0.8267 H         1 <0>         0.0777
     22 H4         -0.5379   -0.5042    0.6600 H         1 <0>         0.4037
     23 H5          1.0311   -2.5295   -0.1761 H         1 <0>         0.1039
     24 H6         -0.5001   -2.5591   -1.0832 H         1 <0>         0.1035
     25 H7          0.7539   -2.3116   -3.2080 H         1 <0>         0.0814
     26 H8          2.2851   -2.2820   -2.3010 H         1 <0>         0.0823
     27 H9          0.8776   -4.6266   -1.5949 H         1 <0>         0.4016
     28 H10         1.0393   -6.4834   -1.3699 H         1 <0>         0.1447
     29 H11         2.0626  -10.0709   -3.4448 H         1 <0>         0.1716
     30 H12         2.9906   -5.3034   -5.4942 H         1 <0>         0.4310
     31 H13         2.5860   -7.5311   -6.9929 H         1 <0>         0.3464
     32 H14         3.6572   -6.3104   -7.3509 H         1 <0>         0.3614
@<TRIPOS>BOND
     1    1    2 1
     2    1   19 1
     3    1   20 1
     4    1   21 1
     5    2    3 am
     6    2   22 1
     7    3    4 2
     8    3    5 1
     9    5    6 1
    10    5   23 1
    11    5   24 1
    12    6    7 1
    13    6   25 1
    14    6   26 1
    15    7    8 am
    16    7   27 1
    17    8    9 2
    18    8   10 1
    19   10   15 ar
    20   10   11 ar
    21   11   12 ar
    22   11   28 1
    23   12   13 ar
    24   12   18 1
    25   13   14 ar
    26   13   29 1
    27   14   15 ar
    28   15   16 1
    29   16   17 1
    30   16   30 1
    31   17   31 1
    32   17   32 1
@<TRIPOS>MOLECULE
ZINC06928672
   52    54     0     0     0
SMALL
USER_CHARGES
2-(1-amino-3-methylsulfanyl-propyl)-N-[1-carbamoyl-2-(1H-indol-3-yl)ethyl]-oxazole-4-carboxamide
@<TRIPOS>ATOM
      1 C1          2.6522  -11.8622    2.3203 C.3       1 <0>        -0.1258
      2 S1          2.8835  -10.5490    1.0905 S.3       1 <0>        -0.2234
      3 C2          1.3890   -9.5329    1.2471 C.3       1 <0>        -0.1205
      4 C3          1.4547   -8.3724    0.2522 C.3       1 <0>        -0.1286
      5 C4          0.1942   -7.5154    0.3843 C.3       1 <0>         0.1656
      6 H1          0.0800   -7.1942    1.4196 H         1 <0>         0.1830
      7 C5          0.3135   -6.3058   -0.5066 C.2       1 <0>         0.1091
      8 N1          0.5668   -5.0967   -0.1036 N.2       1 <0>        -0.3953
      9 C6          0.5939   -4.2771   -1.1894 C.2       1 <0>        -0.0545
     10 C7          0.3530   -5.0520   -2.2819 C.2       1 <0>         0.0661
     11 O1          0.1812   -6.3083   -1.8405 O.3       1 <0>        -0.1945
     12 C8          0.8436   -2.8242   -1.1840 C.2       1 <0>         0.6054
     13 O2          0.8461   -2.2038   -2.2299 O.2       1 <0>        -0.5165
     14 N2          1.0691   -2.1835   -0.0199 N.am      1 <0>        -0.6799
     15 C9          1.3172   -0.7397   -0.0145 C.3       1 <0>         0.1322
     16 H2          1.8766   -0.4639   -0.9084 H         1 <0>         0.1235
     17 C10         2.1263   -0.3659    1.2291 C.3       1 <0>        -0.0454
     18 C11         3.4892   -1.0044    1.1523 C.2       1 <0>        -0.1773
     19 C12         3.8555   -2.1733    1.7014 C.2       1 <0>         0.0626
     20 N3          5.1701   -2.4289    1.4209 N.pl3     1 <0>        -0.5934
     21 H3          5.6592   -3.2147    1.7112 H         1 <0>         0.4166
     22 C13         5.6953   -1.4047    0.6653 C.ar      1 <0>         0.0962
     23 C14         4.6639   -0.4702    0.4589 C.ar      1 <0>        -0.1001
     24 C15         4.9117    0.6891   -0.2782 C.ar      1 <0>        -0.0749
     25 C16         6.1539    0.9055   -0.8051 C.ar      1 <0>        -0.1390
     26 C17         7.1731   -0.0160   -0.6091 C.ar      1 <0>        -0.0942
     27 C18         6.9519   -1.1643    0.1196 C.ar      1 <0>        -0.1296
     28 C19         0.0021   -0.0041    0.0020 C.2       1 <0>         0.5086
     29 O3         -1.0399   -0.6247    0.0086 O.2       1 <0>        -0.5363
     30 N4         -0.0162    1.3436    0.0094 N.am      1 <0>        -0.8484
     31 H4          2.5589  -11.4191    3.3118 H         1 <0>         0.0839
     32 H5          1.7475  -12.4236    2.0867 H         1 <0>         0.0821
     33 H6          3.5111  -12.5331    2.3015 H         1 <0>         0.1134
     34 H7          1.3223   -9.1387    2.2612 H         1 <0>         0.1020
     35 H8          0.5109  -10.1432    1.0360 H         1 <0>         0.0801
     36 H9          1.5214   -8.7666   -0.7619 H         1 <0>         0.1089
     37 H10         2.3328   -7.7621    0.4632 H         1 <0>         0.1308
     38 H11         0.3088   -4.7197   -3.3086 H         1 <0>         0.2491
     39 H12         1.0671   -2.6784    0.8144 H         1 <0>         0.4100
     40 H13         2.2349    0.7175    1.2798 H         1 <0>         0.0975
     41 H14         1.6083   -0.7212    2.1199 H         1 <0>         0.0852
     42 H15         3.2084   -2.8165    2.2792 H         1 <0>         0.1655
     43 H16         4.1234    1.4104   -0.4350 H         1 <0>         0.1215
     44 H17         6.3440    1.8005   -1.3788 H         1 <0>         0.1255
     45 H18         8.1494    0.1687   -1.0324 H         1 <0>         0.1278
     46 H19         7.7513   -1.8755    0.2662 H         1 <0>         0.1206
     47 H20         0.8172    1.8399    0.0041 H         1 <0>         0.4042
     48 H21        -0.8627    1.8171    0.0160 H         1 <0>         0.4071
     49 H22        -0.8968   -8.6141   -0.9726 H         1 <0>         0.4442
     50 H23        -1.1179   -9.0862    0.6067 H         1 <0>         0.4471
     51 N5         -0.9967   -8.2869   -0.0131 N.4       1 <0>        -0.6474
     52 H24        -1.8258   -7.6847    0.0509 H         1 <0>         0.4496
@<TRIPOS>BOND
     1    1    2 1
     2    1   31 1
     3    1   32 1
     4    1   33 1
     5    2    3 1
     6    3    4 1
     7    3   34 1
     8    3   35 1
     9    4    5 1
    10    4   36 1
    11    4   37 1
    12    5    6 1
    13    5    7 1
    14    5   51 1
    15    7   11 1
    16    7    8 2
    17    8    9 1
    18    9   10 2
    19    9   12 1
    20   10   11 1
    21   10   38 1
    22   12   13 2
    23   12   14 am
    24   14   15 1
    25   14   39 1
    26   15   16 1
    27   15   17 1
    28   15   28 1
    29   17   18 1
    30   17   40 1
    31   17   41 1
    32   18   23 1
    33   18   19 2
    34   19   20 1
    35   19   42 1
    36   20   21 1
    37   20   22 1
    38   22   27 ar
    39   22   23 ar
    40   23   24 ar
    41   24   25 ar
    42   24   43 1
    43   25   26 ar
    44   25   44 1
    45   26   27 ar
    46   26   45 1
    47   27   46 1
    48   28   29 2
    49   28   30 am
    50   30   47 1
    51   30   48 1
    52   49   51 1
    53   50   51 1
    54   51   52 1
@<TRIPOS>MOLECULE
ZINC37628636
   37    38     0     0     0
SMALL
USER_CHARGES

@<TRIPOS>ATOM
      1 C1         -0.0125    1.3875   -0.1837 C.ar      1 <0>        -0.0882
      2 C2          1.1737    2.0893   -0.1855 C.ar      1 <0>        -0.1121
      3 C3          2.3798    1.4189   -0.0183 C.ar      1 <0>         0.1437
      4 C4          2.3937    0.0393    0.1507 C.ar      1 <0>        -0.1316
      5 C5          1.2108   -0.6681    0.1530 C.ar      1 <0>        -0.0666
      6 C6         -0.0018    0.0023   -0.0137 C.ar      1 <0>        -0.0382
      7 C7         -1.2733   -0.7538   -0.0108 C.2       1 <0>         0.1354
      8 C8         -1.4109   -2.1042    0.1445 C.2       1 <0>        -0.2609
      9 C9         -2.7762   -2.4047    0.0852 C.2       1 <0>         0.2635
     10 O1         -3.3227   -3.6449    0.1983 O.3       1 <0>        -0.4592
     11 N1         -3.4401   -1.2884   -0.0979 N.2       1 <0>        -0.2868
     12 H1         -2.7398    0.7065   -0.2809 H         1 <0>         0.4438
     13 N2         -2.5235   -0.2309   -0.1566 N.pl3     1 <0>        -0.4572
     14 N3          3.5815    2.1337   -0.0207 N.am      1 <0>        -0.6609
     15 C10         3.6225    3.3848    0.4790 C.2       1 <0>         0.5093
     16 O2          2.6425    3.8553    1.0169 O.2       1 <0>        -0.5144
     17 C11         4.8858    4.1990    0.3692 C.3       1 <0>         0.0969
     18 N4          4.6751    5.5124    0.9830 N.am      1 <0>        -0.6925
     19 C12         5.6754    6.4155    1.0023 C.2       1 <0>         0.4998
     20 O3          6.7499    6.1408    0.5115 O.2       1 <0>        -0.5274
     21 C13         5.4586    7.7666    1.6336 C.3       1 <0>        -0.0246
     22 N5          6.6901    8.5603    1.5267 N.4       1 <0>        -0.6207
     23 H2         -0.9496    1.9095   -0.3092 H         1 <0>         0.1270
     24 H3          1.1661    3.1612   -0.3174 H         1 <0>         0.1381
     25 H4          3.3324   -0.4789    0.2800 H         1 <0>         0.1371
     26 H5          1.2223   -1.7400    0.2840 H         1 <0>         0.1411
     27 H6         -0.6089   -2.8134    0.2870 H         1 <0>         0.1582
     28 H7          4.3858    1.7292   -0.3819 H         1 <0>         0.4191
     29 H8          5.6964    3.6832    0.8840 H         1 <0>         0.1164
     30 H9          5.1458    4.3265   -0.6816 H         1 <0>         0.1175
     31 H10         3.8157    5.7321    1.3755 H         1 <0>         0.4233
     32 H11         4.6480    8.2824    1.1188 H         1 <0>         0.1673
     33 H12         5.1986    7.6391    2.6845 H         1 <0>         0.1674
     34 H13         7.4404    8.0829    2.0032 H         1 <0>         0.4430
     35 H14         6.9307    8.6784    0.5539 H         1 <0>         0.4430
     36 H15         6.5450    9.4650    1.9494 H         1 <0>         0.4470
     37 H16        -3.5422   -3.8967    1.1057 H         1 <0>         0.4035
@<TRIPOS>BOND
     1    1    6 ar
     2    1    2 ar
     3    1   23 1
     4    2    3 ar
     5    2   24 1
     6    3    4 ar
     7    3   14 1
     8    4    5 ar
     9    4   25 1
    10    5    6 ar
    11    5   26 1
    12    6    7 1
    13    7    8 2
    14    7   13 1
    15    8   27 1
    16    8    9 1
    17    9   10 1
    18    9   11 2
    19   10   37 1
    20   11   13 1
    21   12   13 1
    22   14   15 am
    23   14   28 1
    24   15   16 2
    25   15   17 1
    26   17   18 1
    27   17   29 1
    28   17   30 1
    29   18   19 am
    30   18   31 1
    31   19   20 2
    32   19   21 1
    33   21   22 1
    34   21   32 1
    35   21   33 1
    36   22   34 1
    37   22   35 1
    38   22   36 1
@<TRIPOS>MOLECULE
ZINC42427143
   44    45     0     0     0
SMALL
USER_CHARGES

@<TRIPOS>ATOM
      1 C1         -0.0187    1.5258    0.0104 C.3       1 <0>        -0.1849
      2 C2          0.0021   -0.0041    0.0020 C.3       1 <0>         0.0229
      3 H1          0.5123   -0.3551   -0.8949 H         1 <0>         0.1384
      4 C3         -1.4337   -0.5331    0.0113 C.3       1 <0>        -0.1376
      5 C4         -1.4079   -2.0642    0.0026 C.3       1 <0>        -0.1308
      6 C5         -0.5995   -2.5582    1.2058 C.3       1 <0>        -0.1317
      7 H2         -1.0933   -2.2500    2.1274 H         1 <0>         0.1234
      8 C6          0.8054   -1.9542    1.1523 C.3       1 <0>         0.0066
      9 N1          0.7134   -0.4897    1.1906 N.4       1 <0>        -0.3738
     10 C7          2.0657    0.0833    1.2183 C.3       1 <0>        -0.0512
     11 C8          2.7645   -0.3212    2.5179 C.3       1 <0>         0.0711
     12 H3          2.8291   -1.4079    2.5727 H         1 <0>         0.1276
     13 C9          4.1730    0.2756    2.5467 C.3       1 <0>         0.1216
     14 N2          4.8842   -0.2083    3.7326 N.pl3     1 <0>        -0.3842
     15 C10         6.0901   -0.8363    3.7422 C.2       1 <0>        -0.0462
     16 C11         6.3942   -1.1187    5.0342 C.2       1 <0>         0.0774
     17 C12         5.3438   -0.6495    5.8358 C.2       1 <0>         0.0138
     18 N3          4.4454   -0.1006    5.0585 N.2       1 <0>        -0.2514
     19 N4          7.5580   -1.7677    5.4890 N.pl3     1 <0>        -0.8737
     20 O1          2.0169    0.1683    3.6330 O.3       1 <0>        -0.5318
     21 C13        -0.5038   -4.0616    1.1648 C.2       1 <0>         0.5292
     22 O2          0.5819   -4.5986    1.1028 O.2       1 <0>        -0.5321
     23 N5         -1.6246   -4.8094    1.1971 N.am      1 <0>        -0.8418
     24 H4          1.0039    1.9031    0.0027 H         1 <0>         0.0829
     25 H5         -0.5459    1.8868   -0.8726 H         1 <0>         0.1081
     26 H6         -0.5289    1.8773    0.9072 H         1 <0>         0.0832
     27 H7         -1.9449   -0.1828    0.9081 H         1 <0>         0.0931
     28 H8         -1.9601   -0.1729   -0.8726 H         1 <0>         0.1194
     29 H9         -2.4267   -2.4464    0.0663 H         1 <0>         0.1015
     30 H10        -0.9424   -2.4157   -0.9182 H         1 <0>         0.0904
     31 H11         1.3836   -2.3040    2.0074 H         1 <0>         0.1400
     32 H12         1.2983   -2.2632    0.2305 H         1 <0>         0.1382
     33 H13         2.6360   -0.2901    0.3677 H         1 <0>         0.1436
     34 H14         2.0011    1.1700    1.1635 H         1 <0>         0.1440
     35 H15         4.7141   -0.0267    1.6501 H         1 <0>         0.1111
     36 H16         4.1063    1.3630    2.5816 H         1 <0>         0.0940
     37 H17         6.6955   -1.0687    2.8785 H         1 <0>         0.1700
     38 H18         5.2879   -0.7242    6.9118 H         1 <0>         0.1844
     39 H19         8.2317   -2.0569    4.8539 H         1 <0>         0.3986
     40 H20         7.6861   -1.9255    6.4375 H         1 <0>         0.4018
     41 H21         1.9189    1.1302    3.6491 H         1 <0>         0.3872
     42 H22        -2.4929   -4.3799    1.2467 H         1 <0>         0.4064
     43 H23        -1.5630   -5.7770    1.1707 H         1 <0>         0.4154
     44 H24         0.2132   -0.2063    2.0198 H         1 <0>         0.4257
@<TRIPOS>BOND
     1    1    2 1
     2    1   24 1
     3    1   25 1
     4    1   26 1
     5    2    3 1
     6    2    9 1
     7    2    4 1
     8    4    5 1
     9    4   27 1
    10    4   28 1
    11    5    6 1
    12    5   29 1
    13    5   30 1
    14    6    7 1
    15    6    8 1
    16    6   21 1
    17    8    9 1
    18    8   31 1
    19    8   32 1
    20    9   10 1
    21    9   44 1
    22   10   11 1
    23   10   33 1
    24   10   34 1
    25   11   12 1
    26   11   13 1
    27   11   20 1
    28   13   14 1
    29   13   35 1
    30   13   36 1
    31   14   18 1
    32   14   15 1
    33   15   16 2
    34   15   37 1
    35   16   17 1
    36   16   19 1
    37   17   18 2
    38   17   38 1
    39   19   39 1
    40   19   40 1
    41   20   41 1
    42   21   22 2
    43   21   23 am
    44   23   42 1
    45   23   43 1
@<TRIPOS>MOLECULE
ZINC47613789
   40    40     0     0     0
SMALL
USER_CHARGES

@<TRIPOS>ATOM
      1 C1          0.1407    1.1262   -0.2951 C.ar      1 <0>        -0.1246
      2 C2          1.3759    1.7428   -0.3722 C.ar      1 <0>        -0.0527
      3 C3          2.5303    0.9839   -0.3487 C.ar      1 <0>        -0.1469
      4 C4          2.4499   -0.3949   -0.2478 C.ar      1 <0>         0.1254
      5 C5          1.2126   -1.0113   -0.1707 C.ar      1 <0>        -0.2002
      6 C6          0.0592   -0.2500   -0.1944 C.ar      1 <0>        -0.0675
      7 C7          1.1234   -2.5116   -0.0615 C.3       1 <0>         0.0327
      8 N1          1.5011   -2.9271    1.2960 N.4       1 <0>        -0.3638
      9 C8          0.5148   -2.4153    2.2569 C.3       1 <0>        -0.0343
     10 C9          0.9901   -2.6919    3.6600 C.2       1 <0>         0.5115
     11 O1          2.0944   -3.1567    3.8454 O.2       1 <0>        -0.4515
     12 N2          0.1876   -2.4224    4.7087 N.am      1 <0>        -0.6744
     13 C10         0.6127   -2.6697    5.9636 C.2       1 <0>         0.6964
     14 O2          1.7197   -3.1357    6.1494 O.2       1 <0>        -0.5188
     15 N3         -0.1898   -2.4003    7.0123 N.am      1 <0>        -0.8445
     16 C11         1.5382   -4.3939    1.3667 C.3       1 <0>        -0.0397
     17 C12         2.6342   -4.9124    0.4717 C.2       1 <0>         0.5150
     18 O3          3.3168   -4.1367   -0.1624 O.2       1 <0>        -0.4425
     19 N4          2.8554   -6.2384    0.3761 N.am      1 <0>        -0.6751
     20 C13         3.8355   -6.7021   -0.4243 C.2       1 <0>         0.6974
     21 O4          4.5199   -5.9245   -1.0600 O.2       1 <0>        -0.5185
     22 N5          4.0568   -8.0282   -0.5199 N.am      1 <0>        -0.8456
     23 F1          3.5779   -1.1380   -0.2252 F         1 <0>        -0.1195
     24 H1         -0.7609    1.7205   -0.3091 H         1 <0>         0.1455
     25 H2          1.4383    2.8181   -0.4512 H         1 <0>         0.1477
     26 H3          3.4949    1.4657   -0.4092 H         1 <0>         0.1506
     27 H4         -0.9061   -0.7306   -0.1339 H         1 <0>         0.1456
     28 H5          0.1019   -2.8309   -0.2682 H         1 <0>         0.1482
     29 H6          1.8002   -2.9694   -0.7830 H         1 <0>         0.1612
     30 H7          0.3965   -1.3406    2.1186 H         1 <0>         0.1735
     31 H8         -0.4425   -2.9103    2.0934 H         1 <0>         0.1739
     32 H9         -0.6959   -2.0505    4.5604 H         1 <0>         0.4207
     33 H10        -1.0733   -2.0284    6.8640 H         1 <0>         0.4054
     34 H11         0.1161   -2.5783    7.9154 H         1 <0>         0.4306
     35 H12         1.7310   -4.7034    2.3939 H         1 <0>         0.1738
     36 H13         0.5802   -4.7978    1.0393 H         1 <0>         0.1717
     37 H14         2.3092   -6.8591    0.8834 H         1 <0>         0.4194
     38 H15         3.5105   -8.6488   -0.0126 H         1 <0>         0.4048
     39 H16         4.7622   -8.3619   -1.0960 H         1 <0>         0.4298
     40 H17         2.4125   -2.5564    1.5199 H         1 <0>         0.4395
@<TRIPOS>BOND
     1    1    6 ar
     2    1    2 ar
     3    1   24 1
     4    2    3 ar
     5    2   25 1
     6    3    4 ar
     7    3   26 1
     8    4    5 ar
     9    4   23 1
    10    5    6 ar
    11    5    7 1
    12    6   27 1
    13    7    8 1
    14    7   28 1
    15    7   29 1
    16    8    9 1
    17    8   16 1
    18    8   40 1
    19    9   10 1
    20    9   30 1
    21    9   31 1
    22   10   11 2
    23   10   12 am
    24   12   13 am
    25   12   32 1
    26   13   14 2
    27   13   15 am
    28   15   33 1
    29   15   34 1
    30   16   17 1
    31   16   35 1
    32   16   36 1
    33   17   18 2
    34   17   19 am
    35   19   20 am
    36   19   37 1
    37   20   21 2
    38   20   22 am
    39   22   38 1
    40   22   39 1
@<TRIPOS>MOLECULE
ZINC62813915
   39    40     0     0     0
SMALL
USER_CHARGES

@<TRIPOS>ATOM
      1 C1          0.0249    1.1662    2.0520 C.3       1 <0>        -0.1803
      2 C2          0.0181   -0.2213    1.4073 C.3       1 <0>        -0.0159
      3 H1         -0.9976   -0.6168    1.4070 H         1 <0>         0.1416
      4 C3          0.5255   -0.1172   -0.0326 C.3       1 <0>         0.0214
      5 N1          0.5360   -1.4541   -0.6431 N.3       1 <0>        -0.6499
      6 C4          1.3886   -2.3721    0.1253 C.3       1 <0>         0.0547
      7 H2          1.3606   -3.3619   -0.3304 H         1 <0>         0.1612
      8 C5          0.8741   -2.4576    1.5640 C.3       1 <0>        -0.0424
      9 N2          0.8932   -1.1203    2.1712 N.4       1 <0>        -0.5065
     10 C6          2.8057   -1.8595    0.1272 C.2       1 <0>         0.4869
     11 O1          3.0795   -0.8314   -0.4552 O.2       1 <0>        -0.4669
     12 N3          3.7689   -2.5433    0.7761 N.am      1 <0>        -0.6688
     13 C7          5.0639   -2.0198    0.8588 C.ar      1 <0>         0.0999
     14 C8          5.8231   -2.2187    2.0047 C.ar      1 <0>        -0.0801
     15 C9          7.1008   -1.7007    2.0833 C.ar      1 <0>        -0.1170
     16 C10         7.6244   -0.9841    1.0226 C.ar      1 <0>        -0.0179
     17 C11         6.8711   -0.7839   -0.1193 C.ar      1 <0>        -0.6568
     18 C12         5.5948   -1.3052   -0.2067 C.ar      1 <0>        -0.0163
     19 S1          7.5426    0.1303   -1.4677 S.o2      1 <0>         2.6986
     20 O2          6.4384    0.6418   -2.2014 O.2       1 <0>        -0.9540
     21 O3          8.5522    0.9706   -0.9258 O.2       1 <0>        -0.9548
     22 N4          8.3094   -0.9518   -2.4593 N.pl3     1 <0>        -1.2481
     23 H3          1.0406    1.5617    2.0524 H         1 <0>         0.0836
     24 H4         -0.6245    1.8334    1.4852 H         1 <0>         0.1120
     25 H5         -0.3366    1.0921    3.0776 H         1 <0>         0.0838
     26 H6         -0.1323    0.5381   -0.6035 H         1 <0>         0.1305
     27 H7          1.5362    0.2910   -0.0335 H         1 <0>         0.1282
     28 H8         -0.4006   -1.8189   -0.7312 H         1 <0>         0.3706
     29 H9         -0.1460   -2.8416    1.5628 H         1 <0>         0.1503
     30 H10         1.5136   -3.1270    2.1393 H         1 <0>         0.1428
     31 H11         1.8357   -0.7602    2.1616 H         1 <0>         0.4242
     32 H12         3.5644   -3.3985    1.1858 H         1 <0>         0.4155
     33 H13         5.4145   -2.7776    2.8336 H         1 <0>         0.1372
     34 H14         7.6917   -1.8551    2.9740 H         1 <0>         0.1462
     35 H15         8.6238   -0.5797    1.0866 H         1 <0>         0.1519
     36 H16         5.0087   -1.1529   -1.1010 H         1 <0>         0.1595
     37 H17         8.3192   -1.8949   -2.2326 H         1 <0>         0.4166
     38 H18         8.7487   -0.6426   -3.2670 H         1 <0>         0.4254
     39 H19         0.5657   -1.1790    3.1238 H         1 <0>         0.4330
@<TRIPOS>BOND
     1    1    2 1
     2    1   23 1
     3    1   24 1
     4    1   25 1
     5    2    3 1
     6    2    9 1
     7    2    4 1
     8    4    5 1
     9    4   26 1
    10    4   27 1
    11    5    6 1
    12    5   28 1
    13    6    7 1
    14    6    8 1
    15    6   10 1
    16    8    9 1
    17    8   29 1
    18    8   30 1
    19    9   31 1
    20    9   39 1
    21   10   11 2
    22   10   12 am
    23   12   13 1
    24   12   32 1
    25   13   18 ar
    26   13   14 ar
    27   14   15 ar
    28   14   33 1
    29   15   16 ar
    30   15   34 1
    31   16   17 ar
    32   16   35 1
    33   17   18 ar
    34   17   19 1
    35   18   36 1
    36   19   20 2
    37   19   21 2
    38   19   22 1
    39   22   37 1
    40   22   38 1
@<TRIPOS>MOLECULE
ZINC03897418
   37    38     0     0     0
SMALL
USER_CHARGES
2-(hydroxymethyl)-6-(3-nitrophenyl)amino-tetrahydropyran-3,4,5-triol
@<TRIPOS>ATOM
      1 C1          2.4033    0.1090   -0.7550 C.ar      1 <0>        -0.0682
      2 C2          2.3852    1.4694   -0.5163 C.ar      1 <0>        -0.1373
      3 C3          1.1845    2.1072   -0.2327 C.ar      1 <0>         0.2189
      4 C4          0.0051    1.3740   -0.1905 C.ar      1 <0>        -0.1297
      5 C5          0.0303    0.0144   -0.4305 C.ar      1 <0>         0.0037
      6 C6          1.2277   -0.6175   -0.7127 C.ar      1 <0>        -0.1064
      7 N1         -1.2257   -0.7673   -0.3863 N.pl3     1 <0>         0.0256
      8 O1         -2.2806   -0.2114   -0.1383 O.2       1 <0>        -0.1584
      9 O2         -1.2043   -1.9666   -0.5979 O.3       1 <0>        -0.1536
     10 N2          1.1626    3.4826    0.0092 N.pl3     1 <0>        -0.7175
     11 C7          2.4194    4.2284    0.1118 C.3       1 <0>         0.2859
     12 H1          3.2148    3.5575    0.4362 H         1 <0>         0.0846
     13 C8          2.2595    5.3606    1.1298 C.3       1 <0>         0.0462
     14 H2          2.0484    4.9395    2.1127 H         1 <0>         0.0721
     15 C9          3.5574    6.1722    1.1871 C.3       1 <0>         0.0795
     16 H3          4.3701    5.5359    1.5374 H         1 <0>         0.0803
     17 C10         3.8830    6.6936   -0.2159 C.3       1 <0>         0.0902
     18 H4          4.8341    7.2257   -0.1951 H         1 <0>         0.0745
     19 C11         3.9801    5.5099   -1.1819 C.3       1 <0>         0.1114
     20 H5          4.7961    4.8558   -0.8745 H         1 <0>         0.0799
     21 O3          2.7517    4.7801   -1.1639 O.3       1 <0>        -0.3642
     22 C12         4.2461    6.0268   -2.5972 C.3       1 <0>         0.0891
     23 O4          4.4523    4.9203   -3.4775 O.3       1 <0>        -0.5693
     24 O5          2.8490    7.5803   -0.6477 O.3       1 <0>        -0.5298
     25 O6          3.3924    7.2751    2.0806 O.3       1 <0>        -0.5478
     26 O7          1.1818    6.2109    0.7330 O.3       1 <0>        -0.5192
     27 H6          3.3367   -0.3876   -0.9753 H         1 <0>         0.1498
     28 H7          3.3038    2.0365   -0.5502 H         1 <0>         0.1394
     29 H8         -0.9309    1.8676    0.0254 H         1 <0>         0.1525
     30 H9          1.2446   -1.6810   -0.9001 H         1 <0>         0.1529
     31 H10         0.3153    3.9441    0.1092 H         1 <0>         0.4060
     32 H11         3.3896    6.6081   -2.9386 H         1 <0>         0.0686
     33 H12         5.1348    6.6579   -2.5924 H         1 <0>         0.0638
     34 H13         4.6269    5.1741   -4.3941 H         1 <0>         0.3847
     35 H14         2.7293    8.3522   -0.0776 H         1 <0>         0.3853
     36 H15         3.1773    7.0178    2.9876 H         1 <0>         0.3866
     37 H16         0.3281    5.7610    0.6710 H         1 <0>         0.3697
@<TRIPOS>BOND
     1    1    6 ar
     2    1    2 ar
     3    1   27 1
     4    2    3 ar
     5    2   28 1
     6    3    4 ar
     7    3   10 1
     8    4    5 ar
     9    4   29 1
    10    5    6 ar
    11    5    7 1
    12    6   30 1
    13    7    8 2
    14    7    9 1
    15   10   11 1
    16   10   31 1
    17   11   12 1
    18   11   21 1
    19   11   13 1
    20   13   14 1
    21   13   15 1
    22   13   26 1
    23   15   16 1
    24   15   17 1
    25   15   25 1
    26   17   18 1
    27   17   19 1
    28   17   24 1
    29   19   20 1
    30   19   21 1
    31   19   22 1
    32   22   23 1
    33   22   32 1
    34   22   33 1
    35   23   34 1
    36   24   35 1
    37   25   36 1
    38   26   37 1
@<TRIPOS>MOLECULE
ZINC02320720
   31    32     0     0     0
SMALL
USER_CHARGES
2-(5-aminotetrazol-2-yl)-N-[(2,4-dihydroxyphenyl)methyleneamino]acetamide
@<TRIPOS>ATOM
      1 C1         -1.2497    3.1420    0.0309 C.ar      1 <0>        -0.1603
      2 C2         -0.0722    3.8578    0.0235 C.ar      1 <0>        -0.0551
      3 C3          1.1524    3.1857    0.0082 C.ar      1 <0>        -0.0993
      4 C4          1.1763    1.7833    0.0004 C.ar      1 <0>         0.1671
      5 C5         -0.0126    1.0758    0.0080 C.ar      1 <0>        -0.1825
      6 C6         -1.2239    1.7527    0.0174 C.ar      1 <0>         0.1435
      7 O1         -2.3890    1.0544    0.0187 O.3       1 <0>        -0.4973
      8 O2          2.3624    1.1222   -0.0140 O.3       1 <0>        -0.4714
      9 C7          2.4136    3.9468    0.0007 C.2       1 <0>         0.1110
     10 N1          3.5503    3.3196   -0.0131 N.2       1 <0>        -0.2046
     11 N2          4.7498    4.0435   -0.0202 N.am      1 <0>        -0.5828
     12 C8          5.9297    3.3923   -0.0345 C.2       1 <0>         0.5182
     13 O3          5.9532    2.1794   -0.0412 O.2       1 <0>        -0.4745
     14 C9          7.2199    4.1710   -0.0422 C.3       1 <0>         0.1321
     15 N3          8.3516    3.2407   -0.0575 N.pl3     1 <0>        -0.1986
     16 N4          8.9862    2.7167   -1.1957 N.2       1 <0>        -0.3450
     17 C10         9.9430    1.9312   -0.7468 C.2       1 <0>         0.4507
     18 N5          9.9003    1.9691    0.5859 N.2       1 <0>        -0.3319
     19 N6          8.9567    2.7528    0.9712 N.2       1 <0>         0.0320
     20 N7         10.8387    1.1938   -1.5236 N.pl3     1 <0>        -0.8103
     21 H1         -2.1959    3.6626    0.0427 H         1 <0>         0.1380
     22 H2         -0.0960    4.9375    0.0298 H         1 <0>         0.1392
     23 H3          0.0021   -0.0041    0.0020 H         1 <0>         0.1398
     24 H4         -2.7224    0.8472    0.9024 H         1 <0>         0.3975
     25 H5          2.6977    0.9352   -0.9015 H         1 <0>         0.3959
     26 H6          2.3927    5.0266    0.0067 H         1 <0>         0.1249
     27 H7          4.7310    5.0133   -0.0148 H         1 <0>         0.3877
     28 H8          7.2574    4.8034   -0.9291 H         1 <0>         0.1466
     29 H9          7.2737    4.7938    0.8507 H         1 <0>         0.1481
     30 H10        10.7882    1.2337   -2.4915 H         1 <0>         0.4197
     31 H11        11.5115    0.6416   -1.0955 H         1 <0>         0.4217
@<TRIPOS>BOND
     1    1    6 ar
     2    1    2 ar
     3    1   21 1
     4    2    3 ar
     5    2   22 1
     6    3    4 ar
     7    3    9 1
     8    4    5 ar
     9    4    8 1
    10    5    6 ar
    11    5   23 1
    12    6    7 1
    13    7   24 1
    14    8   25 1
    15    9   10 2
    16    9   26 1
    17   10   11 1
    18   11   12 am
    19   11   27 1
    20   12   13 2
    21   12   14 1
    22   14   15 1
    23   14   28 1
    24   14   29 1
    25   15   19 1
    26   15   16 1
    27   16   17 2
    28   17   18 1
    29   17   20 1
    30   18   19 2
    31   20   30 1
    32   20   31 1
@<TRIPOS>MOLECULE
ZINC20922357
   51    53     0     0     0
SMALL
USER_CHARGES
2-[(4-amino-5-hydrazino-1,2,4-triazol-3-yl)sulfanyl]-1-[4-[(5-isopropyl-1,3,4-oxadiazol-2-yl)methyl]piperazin-1-yl]ethanone
@<TRIPOS>ATOM
      1 C1        -11.7001    4.8578   -5.4409 C.3       1 <0>        -0.1485
      2 C2        -12.7338    4.1120   -4.5947 C.3       1 <0>         0.0023
      3 C3        -13.7592    3.4446   -5.5135 C.3       1 <0>        -0.1486
      4 C4        -12.0411    3.0601   -3.7673 C.2       1 <0>         0.1735
      5 N1        -11.3393    2.0608   -4.2211 N.2       1 <0>        -0.2818
      6 N2        -10.8924    1.3690   -3.2325 N.2       1 <0>        -0.2784
      7 C5        -11.3018    1.8981   -2.1146 C.2       1 <0>         0.1612
      8 O1        -12.0339    2.9808   -2.4260 O.3       1 <0>        -0.2156
      9 C6        -11.0035    1.3922   -0.7268 C.3       1 <0>         0.1480
     10 N3         -9.7652    2.0112   -0.2356 N.3       1 <0>        -0.5329
     11 C7         -9.3140    1.3715    1.0075 C.3       1 <0>         0.0402
     12 C8         -8.1303    2.1571    1.5818 C.3       1 <0>         0.1167
     13 N4         -7.1018    2.2820    0.5379 N.am      1 <0>        -0.6072
     14 C9         -7.5067    2.7936   -0.7803 C.3       1 <0>         0.1077
     15 C10        -8.7161    1.9774   -1.2634 C.3       1 <0>         0.0348
     16 C11        -5.8212    1.9417    0.7843 C.2       1 <0>         0.5411
     17 O2         -5.5039    1.5262    1.8786 O.2       1 <0>        -0.5220
     18 C12        -4.7834    2.0776   -0.3001 C.3       1 <0>        -0.1446
     19 S1         -3.1705    1.5446    0.3364 S.3       1 <0>         0.0684
     20 C13        -2.0803    1.7604   -1.0309 C.2       1 <0>         0.1710
     21 N5         -2.4114    2.2091   -2.2173 N.2       1 <0>        -0.3045
     22 N6         -1.2566    2.2283   -3.0104 N.2       1 <0>        -0.3373
     23 C14        -0.2572    1.7966   -2.2812 C.2       1 <0>         0.4835
     24 N7         -0.7405    1.4903   -1.0408 N.pl3     1 <0>        -0.2665
     25 N8         -0.0116    1.0048    0.0076 N.3       1 <0>        -0.7785
     26 N9          1.0616    1.6689   -2.6978 N.pl3     1 <0>        -0.5798
     27 N10         1.4116    2.0129   -3.9726 N.3       1 <0>        -0.5542
     28 H1        -10.9629    5.3376   -4.7804 H         1 <0>         0.0614
     29 H2        -12.2058    5.6256   -6.0449 H         1 <0>         0.0794
     30 H3        -11.1885    4.1464   -6.1058 H         1 <0>         0.0729
     31 H4        -13.2402    4.8153   -3.9173 H         1 <0>         0.1030
     32 H5        -14.5024    2.9084   -4.9051 H         1 <0>         0.0604
     33 H6        -13.2475    2.7332   -6.1784 H         1 <0>         0.0728
     34 H7        -14.2648    4.2124   -6.1175 H         1 <0>         0.0795
     35 H8        -11.8349    1.6523   -0.0552 H         1 <0>         0.1153
     36 H9        -10.8817    0.2993   -0.7532 H         1 <0>         0.0891
     37 H10       -10.1383    1.3635    1.7358 H         1 <0>         0.0991
     38 H11        -9.0017    0.3382    0.7958 H         1 <0>         0.0500
     39 H12        -8.4701    3.1553    1.8950 H         1 <0>         0.0830
     40 H13        -7.7205    1.6202    2.4500 H         1 <0>         0.1052
     41 H14        -7.7787    3.8559   -0.6936 H         1 <0>         0.0852
     42 H15        -6.6715    2.6855   -1.4879 H         1 <0>         0.0969
     43 H16        -8.4105    0.9358   -1.4413 H         1 <0>         0.0543
     44 H17        -9.1037    2.4104   -2.1974 H         1 <0>         0.0877
     45 H18        -5.0650    1.4492   -1.1579 H         1 <0>         0.1283
     46 H19        -4.7225    3.1284   -0.6197 H         1 <0>         0.1292
     47 H20         1.0668    0.8226   -0.1099 H         1 <0>         0.4358
     48 H21        -0.5031    0.7961    0.9693 H         1 <0>         0.4477
     49 H22         1.8242    1.2907   -2.0011 H         1 <0>         0.4246
     50 H23         2.4892    1.8443   -4.1151 H         1 <0>         0.3579
     51 H24         0.8464    1.3964   -4.6870 H         1 <0>         0.3335
@<TRIPOS>BOND
     1    1    2 1
     2    1   28 1
     3    1   29 1
     4    1   30 1
     5    2    3 1
     6    2    4 1
     7    2   31 1
     8    3   32 1
     9    3   33 1
    10    3   34 1
    11    4    8 1
    12    4    5 2
    13    5    6 1
    14    6    7 2
    15    7    8 1
    16    7    9 1
    17    9   10 1
    18    9   35 1
    19    9   36 1
    20   10   15 1
    21   10   11 1
    22   11   12 1
    23   11   37 1
    24   11   38 1
    25   12   13 1
    26   12   39 1
    27   12   40 1
    28   13   14 1
    29   13   16 am
    30   14   15 1
    31   14   41 1
    32   14   42 1
    33   15   43 1
    34   15   44 1
    35   16   17 2
    36   16   18 1
    37   18   19 1
    38   18   45 1
    39   18   46 1
    40   19   20 1
    41   20   24 1
    42   20   21 2
    43   21   22 1
    44   22   23 2
    45   23   24 1
    46   23   26 1
    47   24   25 1
    48   25   47 1
    49   25   48 1
    50   26   27 1
    51   26   49 1
    52   27   50 1
    53   27   51 1
@<TRIPOS>MOLECULE
ZINC38656218
   37    38     0     0     0
SMALL
USER_CHARGES

@<TRIPOS>ATOM
      1 C1         -0.0189    1.5406    0.0105 C.3       1 <0>        -0.1186
      2 C2          1.4904    1.8764   -0.0021 C.3       1 <0>        -0.1620
      3 C3          2.1475    0.6541    0.6002 C.2       1 <0>         0.5276
      4 O1          3.2823    0.6144    1.0264 O.2       1 <0>        -0.5195
      5 N1          1.2905   -0.3814    0.5948 N.am      1 <0>        -0.7132
      6 C4          0.0021   -0.0041    0.0020 C.3       1 <0>         0.1441
      7 H1         -0.8187   -0.3957    0.6029 H         1 <0>         0.1310
      8 C5         -0.0927   -0.5191   -1.4111 C.2       1 <0>         0.4454
      9 O2          0.9038   -0.8820   -1.9899 O.2       1 <0>        -0.4903
     10 O3         -1.2842   -0.5748   -2.0266 O.3       1 <0>        -0.3408
     11 C6         -1.3001   -1.0737   -3.3656 C.3       1 <0>         0.0777
     12 C7         -2.7347   -1.0623   -3.8972 C.3       1 <0>         0.1052
     13 H2         -3.1494   -0.0587   -3.8025 H         1 <0>         0.1011
     14 C8         -2.7366   -1.4785   -5.3704 C.3       1 <0>         0.0926
     15 H3         -2.2847   -2.4653   -5.4707 H         1 <0>         0.0802
     16 C9         -4.1809   -1.5229   -5.8786 C.3       1 <0>         0.0860
     17 H4         -4.1937   -1.8726   -6.9108 H         1 <0>         0.0695
     18 C10        -4.9897   -2.4840   -5.0019 C.3       1 <0>         0.0539
     19 H5         -4.5833   -3.4911   -5.0947 H         1 <0>         0.0854
     20 C11        -4.9008   -2.0289   -3.5429 C.3       1 <0>         0.2319
     21 H6         -5.4391   -2.7334   -2.9089 H         1 <0>         0.1025
     22 O4         -3.5297   -1.9796   -3.1431 O.3       1 <0>        -0.3807
     23 O5         -5.4821   -0.7300   -3.4125 O.3       1 <0>        -0.5483
     24 O6         -6.3554   -2.4795   -5.4224 O.3       1 <0>        -0.5486
     25 O7         -4.7523   -0.2149   -5.8098 O.3       1 <0>        -0.5304
     26 O8         -1.9889   -0.5310   -6.1354 O.3       1 <0>        -0.5435
     27 H7         -0.4952    1.9193    0.9148 H         1 <0>         0.1063
     28 H8         -0.5124    1.9289   -0.8804 H         1 <0>         0.1012
     29 H9          1.8381    2.0322   -1.0234 H         1 <0>         0.1091
     30 H10         1.6904    2.7569    0.6085 H         1 <0>         0.1132
     31 H11         1.4972   -1.2647    0.9385 H         1 <0>         0.4173
     32 H12        -0.6739   -0.4423   -3.9960 H         1 <0>         0.0967
     33 H13        -0.9162   -2.0938   -3.3778 H         1 <0>         0.0750
     34 H14        -5.4606   -0.3780   -2.5121 H         1 <0>         0.3828
     35 H15        -6.9268   -3.0673   -4.9095 H         1 <0>         0.3873
     36 H16        -5.6680   -0.1690   -6.1170 H         1 <0>         0.3858
     37 H17        -1.9481   -0.7327   -7.0802 H         1 <0>         0.3873
@<TRIPOS>BOND
     1    1    6 1
     2    1    2 1
     3    1   27 1
     4    1   28 1
     5    2    3 1
     6    2   29 1
     7    2   30 1
     8    3    4 2
     9    3    5 am
    10    5    6 1
    11    5   31 1
    12    6    7 1
    13    6    8 1
    14    8    9 2
    15    8   10 1
    16   10   11 1
    17   11   12 1
    18   11   32 1
    19   11   33 1
    20   12   13 1
    21   12   22 1
    22   12   14 1
    23   14   15 1
    24   14   16 1
    25   14   26 1
    26   16   17 1
    27   16   18 1
    28   16   25 1
    29   18   19 1
    30   18   20 1
    31   18   24 1
    32   20   21 1
    33   20   22 1
    34   20   23 1
    35   23   34 1
    36   24   35 1
    37   25   36 1
    38   26   37 1
@<TRIPOS>MOLECULE
ZINC08926345
   46    49     0     0     0
SMALL
USER_CHARGES

@<TRIPOS>ATOM
      1 C1         -0.0984    1.3705    1.0997 C.3       1 <0>         0.0825
      2 N1         -0.0628   -0.0766    0.8747 N.am      1 <0>        -0.5068
      3 C2         -1.2322   -0.7607    0.5826 C.2       1 <0>         0.3466
      4 C3         -1.1704   -2.1344    0.3730 C.2       1 <0>        -0.1390
      5 C4          0.0739   -2.7876    0.4626 C.2       1 <0>         0.6079
      6 O1          0.1526   -3.9901    0.2824 O.2       1 <0>        -0.5186
      7 N2          1.1780   -2.0674    0.7496 N.am      1 <0>        -0.6485
      8 H1          2.0367   -2.5141    0.8121 H         1 <0>         0.4417
      9 C5          1.1067   -0.7397    0.9465 C.2       1 <0>         0.7123
     10 O2          2.1235   -0.1225    1.1993 O.2       1 <0>        -0.5298
     11 N3         -2.4654   -2.5474    0.1052 N.pl3     1 <0>        -0.4167
     12 C6         -3.2499   -1.4386    0.1600 C.2       1 <0>         0.5295
     13 N4         -2.5054   -0.3898    0.4434 N.2       1 <0>        -0.4737
     14 N5         -4.6135   -1.4155   -0.0492 N.pl3     1 <0>        -0.4664
     15 N6         -5.2591   -0.3013    0.0281 N.2       1 <0>        -0.0868
     16 C7         -6.5688   -0.2938   -0.0641 C.2       1 <0>         0.0115
     17 C8         -7.4787   -1.4625   -0.0774 C.ar      1 <0>        -0.1475
     18 C9         -7.2675   -2.8349   -0.0040 C.ar      1 <0>        -0.0701
     19 C10        -8.3455   -3.6965   -0.0427 C.ar      1 <0>        -0.1320
     20 C11        -9.6314   -3.1947   -0.1542 C.ar      1 <0>        -0.0686
     21 C12        -9.8511   -1.8342   -0.2281 C.ar      1 <0>        -0.1292
     22 C13        -8.7778   -0.9507   -0.1903 C.ar      1 <0>         0.1708
     23 N7         -8.7209    0.4372   -0.2460 N.am      1 <0>        -0.6482
     24 C14        -7.4544    0.8802   -0.1706 C.2       1 <0>         0.5964
     25 O3         -7.1006    2.0448   -0.1900 O.2       1 <0>        -0.4713
     26 C15        -2.9047   -3.9152   -0.1816 C.3       1 <0>         0.0642
     27 C16        -3.2769   -4.6162    1.1265 C.3       1 <0>         0.0925
     28 H2         -4.0214   -4.0229    1.6575 H         1 <0>         0.1068
     29 C17        -3.8528   -5.9996    0.8178 C.3       1 <0>         0.0474
     30 O4         -4.3076   -6.6073    2.0286 O.3       1 <0>        -0.5580
     31 O5         -2.1108   -4.7564    1.9404 O.3       1 <0>        -0.5362
     32 H3          0.9088    1.7305    1.3097 H         1 <0>         0.1053
     33 H4         -0.4834    1.8673    0.2092 H         1 <0>         0.0827
     34 H5         -0.7470    1.5906    1.9477 H         1 <0>         0.0825
     35 H6         -5.0867   -2.2370   -0.2544 H         1 <0>         0.3999
     36 H7         -6.2643   -3.2253    0.0826 H         1 <0>         0.1095
     37 H8         -8.1857   -4.7631    0.0137 H         1 <0>         0.1355
     38 H9        -10.4701   -3.8744   -0.1838 H         1 <0>         0.1389
     39 H10       -10.8586   -1.4550   -0.3156 H         1 <0>         0.1369
     40 H11        -9.4974    1.0131   -0.3254 H         1 <0>         0.4286
     41 H12        -3.7736   -3.8875   -0.8390 H         1 <0>         0.1035
     42 H13        -2.0973   -4.4613   -0.6694 H         1 <0>         0.1265
     43 H14        -4.6886   -5.8990    0.1254 H         1 <0>         0.0583
     44 H15        -3.0803   -6.6224    0.3667 H         1 <0>         0.0594
     45 H16        -4.6861   -7.4889    1.9081 H         1 <0>         0.3858
     46 H17        -1.4047   -5.2743    1.5301 H         1 <0>         0.3838
@<TRIPOS>BOND
     1    1    2 1
     2    1   32 1
     3    1   33 1
     4    1   34 1
     5    2    9 am
     6    2    3 1
     7    3   13 1
     8    3    4 2
     9    4    5 1
    10    4   11 1
    11    5    6 2
    12    5    7 am
    13    7    8 1
    14    7    9 am
    15    9   10 2
    16   11   12 1
    17   11   26 1
    18   12   13 2
    19   12   14 1
    20   14   15 1
    21   14   35 1
    22   15   16 2
    23   16   24 1
    24   16   17 1
    25   17   22 ar
    26   17   18 ar
    27   18   19 ar
    28   18   36 1
    29   19   20 ar
    30   19   37 1
    31   20   21 ar
    32   20   38 1
    33   21   22 ar
    34   21   39 1
    35   22   23 1
    36   23   24 am
    37   23   40 1
    38   24   25 2
    39   26   27 1
    40   26   41 1
    41   26   42 1
    42   27   28 1
    43   27   29 1
    44   27   31 1
    45   29   30 1
    46   29   43 1
    47   29   44 1
    48   30   45 1
    49   31   46 1
@<TRIPOS>MOLECULE
ZINC04982952
   39    41     0     0     0
SMALL
USER_CHARGES
4-(aminocarbamoyl)-5-(7,7-dimethyl-3,6,8-trioxabicyclo[3.3.0]oct-4-yl)-1H-pyrazole-3-carboxamide
@<TRIPOS>ATOM
      1 C1         -1.4603    3.3307   -4.4642 C.3       1 <0>        -0.1734
      2 C2         -1.0408    3.9238   -3.1177 C.3       1 <0>         0.2518
      3 O1         -2.1643    4.5650   -2.5039 O.3       1 <0>        -0.3604
      4 C3         -2.4408    3.8839   -1.2688 C.3       1 <0>         0.0275
      5 H1         -3.5062    3.7977   -1.0557 H         1 <0>         0.1425
      6 C4         -1.6471    4.5521   -0.1316 C.3       1 <0>         0.0328
      7 O2         -0.9223    3.5333    0.5636 O.3       1 <0>        -0.3639
      8 C5         -1.2416    2.2449    0.0204 C.3       1 <0>         0.1526
      9 H2         -2.0339    1.7765    0.6043 H         1 <0>         0.1209
     10 C6         -1.7242    2.5044   -1.4246 C.3       1 <0>         0.0270
     11 H3         -2.3530    1.7130   -1.8324 H         1 <0>         0.1347
     12 O3         -0.5749    2.8765   -2.2539 O.3       1 <0>        -0.3586
     13 C7         -0.0165    1.3673    0.0096 C.2       1 <0>         0.0827
     14 C8          0.0021   -0.0041    0.0020 C.2       1 <0>        -0.1865
     15 C9          1.4323   -0.3490   -0.0135 C.2       1 <0>         0.0161
     16 N1          2.0803    0.7961   -0.0135 N.2       1 <0>        -0.2354
     17 N2          1.2609    1.7820   -0.0004 N.pl3     1 <0>        -0.3497
     18 H4          1.5389    2.7426    0.0021 H         1 <0>         0.4615
     19 C10         2.0205   -1.7039   -0.0268 C.2       1 <0>         0.6094
     20 O4          1.2968   -2.6807   -0.0256 O.2       1 <0>        -0.5253
     21 N3          3.3594   -1.8571   -0.0404 N.am      1 <0>        -0.8375
     22 C11        -1.1499   -0.9241    0.0074 C.2       1 <0>         0.6061
     23 O5         -1.6344   -1.2978   -1.0435 O.2       1 <0>        -0.5096
     24 N4         -1.6661   -1.3509    1.1769 N.am      1 <0>        -0.5664
     25 N5         -2.7335   -2.2033    1.1819 N.3       1 <0>        -0.5996
     26 C12         0.0789    4.9442   -3.3325 C.3       1 <0>        -0.1551
     27 H5         -1.7986    4.1298   -5.1237 H         1 <0>         0.0772
     28 H6         -0.6101    2.8210   -4.9175 H         1 <0>         0.0784
     29 H7         -2.2711    2.6185   -4.3107 H         1 <0>         0.0658
     30 H8         -2.3336    5.0486    0.5542 H         1 <0>         0.0907
     31 H9         -0.9511    5.2808   -0.5470 H         1 <0>         0.0899
     32 H10         3.9369   -1.0777   -0.0414 H         1 <0>         0.4090
     33 H11         3.7457   -2.7469   -0.0491 H         1 <0>         0.4102
     34 H12        -1.2796   -1.0527    2.0152 H         1 <0>         0.4006
     35 H13        -2.5332   -3.0366    0.6495 H         1 <0>         0.3504
     36 H14        -3.0076   -2.4340    2.1251 H         1 <0>         0.3583
     37 H15         0.3625    5.3794   -2.3742 H         1 <0>         0.0665
     38 H16         0.9422    4.4482   -3.7761 H         1 <0>         0.0775
     39 H17        -0.2704    5.7318   -4.0001 H         1 <0>         0.0813
@<TRIPOS>BOND
     1    1    2 1
     2    1   27 1
     3    1   28 1
     4    1   29 1
     5    2   12 1
     6    2    3 1
     7    2   26 1
     8    3    4 1
     9    4    5 1
    10    4   10 1
    11    4    6 1
    12    6    7 1
    13    6   30 1
    14    6   31 1
    15    7    8 1
    16    8    9 1
    17    8   10 1
    18    8   13 1
    19   10   11 1
    20   10   12 1
    21   13   17 1
    22   13   14 2
    23   14   15 1
    24   14   22 1
    25   15   16 2
    26   15   19 1
    27   16   17 1
    28   17   18 1
    29   19   20 2
    30   19   21 am
    31   21   32 1
    32   21   33 1
    33   22   23 2
    34   22   24 am
    35   24   25 1
    36   24   34 1
    37   25   35 1
    38   25   36 1
    39   26   37 1
    40   26   38 1
    41   26   39 1
@<TRIPOS>MOLECULE
ZINC16546004
   32    33     0     0     0
SMALL
USER_CHARGES
1-[(2S,3S,4S,5R)-3,4-dihydroxy-5-(hydroxymethyl)tetrahydrofuran-2-yl]-4-hydrazino-pyrimidin-2-one
@<TRIPOS>ATOM
      1 C1          1.1464    1.7761    0.0007 C.2       1 <0>        -0.2839
      2 C2         -0.0126    1.0758    0.0080 C.2       1 <0>         0.2001
      3 N1         -1.1976    1.7485    0.0172 N.am      1 <0>        -0.5366
      4 C3         -1.2154    3.0940    0.0293 C.2       1 <0>         0.6413
      5 O1         -2.2853    3.6798    0.0427 O.2       1 <0>        -0.5060
      6 N2         -0.0840    3.7967    0.0223 N.2       1 <0>        -0.5710
      7 C4          1.0931    3.1851    0.0082 C.2       1 <0>         0.4427
      8 N3          2.2552    3.9213    0.0006 N.pl3     1 <0>        -0.4151
      9 N4          2.1991    5.2861    0.0080 N.3       1 <0>        -0.6559
     10 C5         -2.4587    1.0030    0.0195 C.3       1 <0>         0.2998
     11 H1         -3.0377    1.2532   -0.8694 H         1 <0>         0.1354
     12 C6         -3.2683    1.3473    1.2882 C.3       1 <0>         0.0915
     13 H2         -2.6146    1.7229    2.0754 H         1 <0>         0.0844
     14 C7         -3.8697   -0.0301    1.6793 C.3       1 <0>         0.0438
     15 H3         -4.7839   -0.2323    1.1214 H         1 <0>         0.0978
     16 C8         -2.7280   -0.9835    1.2451 C.3       1 <0>         0.0466
     17 H4         -1.9609   -1.0317    2.0179 H         1 <0>         0.0963
     18 O2         -2.1914   -0.4040    0.0453 O.3       1 <0>        -0.3459
     19 C9         -3.2828   -2.3802    0.9582 C.3       1 <0>         0.0783
     20 O3         -2.2095   -3.2565    0.6086 O.3       1 <0>        -0.5637
     21 O4         -4.1008   -0.1110    3.0872 O.3       1 <0>        -0.5453
     22 O5         -4.3023    2.2881    0.9919 O.3       1 <0>        -0.5222
     23 H5          2.0968    1.2633   -0.0105 H         1 <0>         0.1640
     24 H6          0.0021   -0.0041    0.0020 H         1 <0>         0.1854
     25 H7          2.7969    3.6974    0.8108 H         1 <0>         0.3358
     26 H8          1.6662    5.6218    0.7963 H         1 <0>         0.3368
     27 H9          3.1254    5.6861    0.0010 H         1 <0>         0.3730
     28 H10        -3.7876   -2.7602    1.8464 H         1 <0>         0.0655
     29 H11        -3.9920   -2.3268    0.1322 H         1 <0>         0.0616
     30 H12        -2.4885   -4.1615    0.4131 H         1 <0>         0.3870
     31 H13        -4.3748   -0.9872    3.3911 H         1 <0>         0.3886
     32 H14        -4.8392    2.5364    1.7569 H         1 <0>         0.3900
@<TRIPOS>BOND
     1    1    7 1
     2    1    2 2
     3    1   23 1
     4    2    3 1
     5    2   24 1
     6    3    4 am
     7    3   10 1
     8    4    5 2
     9    4    6 1
    10    6    7 2
    11    7    8 1
    12    8    9 1
    13    8   25 1
    14    9   26 1
    15    9   27 1
    16   10   11 1
    17   10   18 1
    18   10   12 1
    19   12   13 1
    20   12   14 1
    21   12   22 1
    22   14   15 1
    23   14   16 1
    24   14   21 1
    25   16   17 1
    26   16   18 1
    27   16   19 1
    28   19   20 1
    29   19   28 1
    30   19   29 1
    31   20   30 1
    32   21   31 1
    33   22   32 1
@<TRIPOS>MOLECULE
ZINC40378414
   38    39     0     0     0
SMALL
USER_CHARGES

@<TRIPOS>ATOM
      1 C1          0.2166    1.3440   -0.6860 C.2       1 <0>         0.1778
      2 C2          1.1688    2.0500    0.0216 C.2       1 <0>        -0.0811
      3 N1          2.1161    1.4058    0.7197 N.2       1 <0>        -0.3677
      4 C3          2.1543    0.1005    0.7421 C.2       1 <0>         0.0431
      5 C4          1.1888   -0.6502    0.0246 C.2       1 <0>         0.4774
      6 O1          1.2204   -1.8682    0.0426 O.2       1 <0>        -0.5133
      7 N2          0.2347   -0.0047   -0.6785 N.am      1 <0>        -0.5866
      8 H1         -0.4320   -0.5059   -1.1736 H         1 <0>         0.4280
      9 C5          1.1447    3.5255    0.0096 C.2       1 <0>         0.5930
     10 O2          0.0857    4.1154   -0.0855 O.2       1 <0>        -0.5366
     11 N3          2.2964    4.2190    0.1040 N.am      1 <0>        -0.5940
     12 C6          3.5916    3.5257    0.0840 C.3       1 <0>         0.1064
     13 C7          4.4671    4.1478   -1.0084 C.3       1 <0>        -0.1373
     14 C8          4.5659    5.6577   -0.7791 C.3       1 <0>        -0.1164
     15 C9          3.1707    6.2808   -0.8649 C.3       1 <0>        -0.1075
     16 H2          2.7374    6.0694   -1.8425 H         1 <0>         0.0855
     17 C10         2.2808    5.6834    0.2229 C.3       1 <0>         0.1126
     18 C11         3.2747    7.7947   -0.6690 C.3       1 <0>         0.1188
     19 N4          1.9578    8.4046   -0.8694 N.pl3     1 <0>        -1.1255
     20 S1          1.6793    9.9575   -0.3662 S.o2      1 <0>         2.7990
     21 O3          0.3381   10.2650   -0.7209 O.2       1 <0>        -0.9810
     22 O4          2.1521   10.0420    0.9711 O.2       1 <0>        -0.9793
     23 N5          2.6478   10.9475   -1.2741 N.pl3     1 <0>        -1.2598
     24 H3         -0.5449    1.8711   -1.2415 H         1 <0>         0.1877
     25 H4          2.9217   -0.4074    1.3073 H         1 <0>         0.1969
     26 H5          4.0807    3.6370    1.0517 H         1 <0>         0.0754
     27 H6          3.4367    2.4682   -0.1300 H         1 <0>         0.1027
     28 H7          5.4637    3.7080   -0.9704 H         1 <0>         0.0811
     29 H8          4.0215    3.9565   -1.9846 H         1 <0>         0.0657
     30 H9          4.9887    5.8483    0.2073 H         1 <0>         0.0728
     31 H10         5.2084    6.0994   -1.5408 H         1 <0>         0.0722
     32 H11         1.2613    6.0491    0.1006 H         1 <0>         0.0972
     33 H12         2.6606    5.9745    1.2023 H         1 <0>         0.0767
     34 H13         3.6235    8.0071    0.3416 H         1 <0>         0.0871
     35 H14         3.9797    8.2069   -1.3908 H         1 <0>         0.0711
     36 H15         1.2491    7.8988   -1.2969 H         1 <0>         0.4226
     37 H16         2.3658   11.8546   -1.4705 H         1 <0>         0.4219
     38 H17         3.4971   10.6203   -1.6095 H         1 <0>         0.4133
@<TRIPOS>BOND
     1    1    7 1
     2    1    2 2
     3    1   24 1
     4    2    3 1
     5    2    9 1
     6    3    4 2
     7    4    5 1
     8    4   25 1
     9    5    6 2
    10    5    7 am
    11    7    8 1
    12    9   10 2
    13    9   11 am
    14   11   17 1
    15   11   12 1
    16   12   13 1
    17   12   26 1
    18   12   27 1
    19   13   14 1
    20   13   28 1
    21   13   29 1
    22   14   15 1
    23   14   30 1
    24   14   31 1
    25   15   16 1
    26   15   17 1
    27   15   18 1
    28   17   32 1
    29   17   33 1
    30   18   19 1
    31   18   34 1
    32   18   35 1
    33   19   20 1
    34   19   36 1
    35   20   21 2
    36   20   22 2
    37   20   23 1
    38   23   37 1
    39   23   38 1
@<TRIPOS>MOLECULE
ZINC44931532
   34    34     0     0     0
SMALL
USER_CHARGES

@<TRIPOS>ATOM
      1 C1         -1.5771   -4.0654   -3.4866 C.3       1 <0>        -0.1538
      2 C2         -1.6554   -2.5692   -3.7968 C.3       1 <0>         0.2754
      3 H1         -2.4469   -2.1154   -3.2005 H         1 <0>         0.0826
      4 C3         -1.9551   -2.3747   -5.2608 C.2       1 <0>         0.0326
      5 N1         -3.1147   -2.0100   -5.7883 N.2       1 <0>        -0.3859
      6 N2         -2.9613   -1.9560   -7.0673 N.2       1 <0>        -0.1915
      7 N3         -1.7479   -2.2738   -7.3579 N.2       1 <0>        -0.1894
      8 N4         -1.1083   -2.5299   -6.2681 N.2       1 <0>        -0.3723
      9 N5         -0.3750   -1.9355   -3.4721 N.pl3     1 <0>        -1.1050
     10 S1         -0.2979   -0.7873   -2.2813 S.o2      1 <0>         2.7875
     11 O1         -0.9422   -1.3401   -1.1418 O.2       1 <0>        -0.9838
     12 O2          1.0458   -0.3263   -2.2480 O.2       1 <0>        -0.9776
     13 N6         -1.2253    0.4929   -2.7748 N.pl3     1 <0>        -1.0064
     14 C4         -0.6576    1.5086   -3.6649 C.3       1 <0>         0.0844
     15 C5         -2.6134    0.6097   -2.3212 C.3       1 <0>         0.1267
     16 C6         -2.6746    1.5253   -1.0970 C.3       1 <0>        -0.1756
     17 C7         -4.1041    1.5535   -0.5522 C.3       1 <0>        -0.0073
     18 N7         -4.1628    2.4326    0.6233 N.4       1 <0>        -0.6367
     19 H2         -0.8387   -4.5333   -4.1378 H         1 <0>         0.0671
     20 H3         -1.2847   -4.2059   -2.4460 H         1 <0>         0.0611
     21 H4         -2.5519   -4.5229   -3.6551 H         1 <0>         0.0672
     22 H5          0.4275   -2.1885   -3.9546 H         1 <0>         0.4247
     23 H6         -0.8290    1.2197   -4.7018 H         1 <0>         0.0635
     24 H7         -1.1353    2.4691   -3.4716 H         1 <0>         0.0712
     25 H8          0.4139    1.5927   -3.4835 H         1 <0>         0.0841
     26 H9         -3.2227    1.0310   -3.1209 H         1 <0>         0.0940
     27 H10        -2.9934   -0.3770   -2.0563 H         1 <0>         0.0944
     28 H11        -2.0000    1.1492   -0.3279 H         1 <0>         0.0919
     29 H12        -2.3745    2.5337   -1.3821 H         1 <0>         0.0919
     30 H13        -4.7787    1.9296   -1.3213 H         1 <0>         0.1384
     31 H14        -4.4042    0.5452   -0.2671 H         1 <0>         0.1400
     32 H15        -3.8850    3.3660    0.3594 H         1 <0>         0.4337
     33 H16        -5.1055    2.4512    0.9826 H         1 <0>         0.4374
     34 H17        -3.5383    2.0845    1.3352 H         1 <0>         0.4356
@<TRIPOS>BOND
     1    1    2 1
     2    1   19 1
     3    1   20 1
     4    1   21 1
     5    2    3 1
     6    2    4 1
     7    2    9 1
     8    4    5 1
     9    4    8 2
    10    5    6 1
    11    6    7 2
    12    7    8 1
    13    9   10 1
    14    9   22 1
    15   10   11 2
    16   10   12 2
    17   10   13 1
    18   13   14 1
    19   13   15 1
    20   14   23 1
    21   14   24 1
    22   14   25 1
    23   15   16 1
    24   15   26 1
    25   15   27 1
    26   16   17 1
    27   16   28 1
    28   16   29 1
    29   17   18 1
    30   17   30 1
    31   17   31 1
    32   18   32 1
    33   18   33 1
    34   18   34 1
@<TRIPOS>MOLECULE
ZINC49347895
   33    34     0     0     0
SMALL
USER_CHARGES

@<TRIPOS>ATOM
      1 C1         -0.0188    1.5335    0.0105 C.3       1 <0>        -0.1347
      2 C2          1.4289    2.0809   -0.0004 C.3       1 <0>        -0.5768
      3 S1          2.3583    0.7478   -0.8615 S.o2      1 <0>         2.3754
      4 O1          2.7805    1.2249   -2.1317 O.2       1 <0>        -0.9314
      5 O2          3.3165    0.2000    0.0335 O.2       1 <0>        -0.9272
      6 C3          0.9956   -0.4689   -1.1008 C.3       1 <0>        -0.5974
      7 C4          0.0021   -0.0041    0.0020 C.3       1 <0>         0.1403
      8 H1          0.3313   -0.3731    0.9734 H         1 <0>         0.1181
      9 N1         -1.3388   -0.5155   -0.2925 N.am      1 <0>        -0.7114
     10 C5         -1.6973   -1.7460    0.1243 C.2       1 <0>         0.5125
     11 O3         -0.9098   -2.4300    0.7431 O.2       1 <0>        -0.5207
     12 C6         -3.0766   -2.2721   -0.1787 C.3       1 <0>         0.1002
     13 N2         -3.2178   -3.6204    0.3766 N.am      1 <0>        -0.6914
     14 C7         -4.3761   -4.2930    0.2267 C.2       1 <0>         0.6100
     15 O4         -5.3040   -3.7807   -0.3694 O.2       1 <0>        -0.5098
     16 C8         -4.5183   -5.6499    0.7856 C.2       1 <0>         0.2451
     17 N3         -3.6022   -6.3022    1.4472 N.2       1 <0>        -0.2189
     18 N4         -4.1302   -7.5505    1.8038 N.am      1 <0>        -0.5316
     19 C9         -5.3909   -7.6108    1.3285 C.2       1 <0>         0.6558
     20 O5         -6.1594   -8.5476    1.4477 O.2       1 <0>        -0.5375
     21 N5         -5.6488   -6.4454    0.7023 N.am      1 <0>        -0.6301
     22 H2         -0.5313    1.8835    0.9065 H         1 <0>         0.1055
     23 H3         -0.5483    1.8930   -0.8718 H         1 <0>         0.0953
     24 H4          1.4848    3.0146   -0.5601 H         1 <0>         0.1476
     25 H5          1.7988    2.2155    1.0160 H         1 <0>         0.1443
     26 H6          0.5543   -0.3764   -2.0932 H         1 <0>         0.1443
     27 H7          1.3394   -1.4869   -0.9179 H         1 <0>         0.1479
     28 H8         -1.9686    0.0316   -0.7874 H         1 <0>         0.4104
     29 H9         -3.8224   -1.6150    0.2685 H         1 <0>         0.1133
     30 H10        -3.2233   -2.3066   -1.2582 H         1 <0>         0.1132
     31 H11        -2.4777   -4.0291    0.8522 H         1 <0>         0.4261
     32 H12        -6.4818   -6.2059    0.2670 H         1 <0>         0.4500
     33 H13        -3.6718   -8.2452    2.3019 H         1 <0>         0.4636
@<TRIPOS>BOND
     1    1    7 1
     2    1    2 1
     3    1   22 1
     4    1   23 1
     5    2    3 1
     6    2   24 1
     7    2   25 1
     8    3    4 2
     9    3    5 2
    10    3    6 1
    11    6    7 1
    12    6   26 1
    13    6   27 1
    14    7    8 1
    15    7    9 1
    16    9   10 am
    17    9   28 1
    18   10   11 2
    19   10   12 1
    20   12   13 1
    21   12   29 1
    22   12   30 1
    23   13   14 am
    24   13   31 1
    25   14   15 2
    26   14   16 1
    27   16   21 1
    28   16   17 2
    29   17   18 1
    30   18   19 am
    31   18   33 1
    32   19   20 2
    33   19   21 am
    34   21   32 1
@<TRIPOS>MOLECULE
ZINC05586838
   29    30     0     0     0
SMALL
USER_CHARGES
1-amino-4-hydroxy-5-(4-methoxyphenyl)amino-3H-imidazol-2-one
@<TRIPOS>ATOM
      1 C1          6.0379    6.8834   -0.4339 C.3       1 <0>         0.0287
      2 O1          6.4271    5.5086   -0.4557 O.3       1 <0>        -0.3213
      3 C2          5.4352    4.5844   -0.3484 C.ar      1 <0>         0.0846
      4 C3          5.7435    3.2320   -0.3626 C.ar      1 <0>        -0.1149
      5 C4          4.7372    2.2927   -0.2533 C.ar      1 <0>        -0.1379
      6 C5          3.4156    2.7025   -0.1295 C.ar      1 <0>         0.1588
      7 C6          3.1074    4.0571   -0.1211 C.ar      1 <0>        -0.1142
      8 C7          4.1159    4.9948   -0.2244 C.ar      1 <0>        -0.1679
      9 N1          2.3957    1.7522   -0.0192 N.pl3     1 <0>        -0.6504
     10 C8          1.0534    2.1643    0.0244 C.2       1 <0>         0.2295
     11 C9          0.0846    1.7915   -0.8216 C.2       1 <0>         0.2185
     12 N2         -1.0879    2.4301   -0.4298 N.am      1 <0>        -0.6453
     13 H1         -1.9521    2.3496   -0.8630 H         1 <0>         0.4363
     14 C10        -0.8152    3.1765    0.6580 C.2       1 <0>         0.6544
     15 O2         -1.6131    3.8672    1.2668 O.2       1 <0>        -0.5613
     16 N3          0.4912    3.0340    0.9545 N.am      1 <0>        -0.3729
     17 N4          1.1493    3.6375    1.9882 N.3       1 <0>        -0.5694
     18 O3          0.2234    0.9442   -1.8789 O.3       1 <0>        -0.4356
     19 H2          6.9227    7.5130   -0.5273 H         1 <0>         0.0979
     20 H3          5.3609    7.0826   -1.2646 H         1 <0>         0.0531
     21 H4          5.5332    7.1033    0.5069 H         1 <0>         0.0539
     22 H5          6.7710    2.9136   -0.4589 H         1 <0>         0.1312
     23 H6          4.9776    1.2398   -0.2637 H         1 <0>         0.1290
     24 H7          2.0799    4.3768   -0.0291 H         1 <0>         0.1346
     25 H8          3.8770    6.0480   -0.2131 H         1 <0>         0.1264
     26 H9          2.6151    0.8085    0.0272 H         1 <0>         0.4166
     27 H10         0.5095    4.1578    2.5696 H         1 <0>         0.3756
     28 H11         1.6647    2.9619    2.5323 H         1 <0>         0.3557
     29 H12        -0.5938    0.7964   -2.3744 H         1 <0>         0.4062
@<TRIPOS>BOND
     1    1    2 1
     2    1   19 1
     3    1   20 1
     4    1   21 1
     5    2    3 1
     6    3    8 ar
     7    3    4 ar
     8    4    5 ar
     9    4   22 1
    10    5    6 ar
    11    5   23 1
    12    6    7 ar
    13    6    9 1
    14    7    8 ar
    15    7   24 1
    16    8   25 1
    17    9   10 1
    18    9   26 1
    19   10   16 1
    20   10   11 2
    21   11   12 1
    22   11   18 1
    23   12   13 1
    24   12   14 am
    25   14   15 2
    26   14   16 am
    27   16   17 1
    28   17   27 1
    29   17   28 1
    30   18   29 1
@<TRIPOS>MOLECULE
ZINC17039613
   30    30     0     0     0
SMALL
USER_CHARGES
2,6-diamino-5-[(1R)-1-methylbutyl]-1H-pyrimidin-4-one
@<TRIPOS>ATOM
      1 C1         -7.5628    4.0600   -2.7526 C.3       1 <0>        -0.1539
      2 C2         -6.8494    4.3284   -1.4260 C.3       1 <0>        -0.1249
      3 C3         -5.5805    3.4772   -1.3479 C.3       1 <0>        -0.1149
      4 C4         -4.8671    3.7456   -0.0213 C.3       1 <0>         0.0105
      5 H1         -4.6633    4.8215    0.0827 H         1 <0>         0.0502
      6 C5         -5.7464    3.2685    1.1363 C.3       1 <0>        -0.1484
      7 C6         -3.5565    3.0020    0.0037 C.2       1 <0>        -0.3718
      8 C7         -2.3802    3.6736    0.1750 C.2       1 <0>         0.4634
      9 N1         -1.2070    2.9660    0.1985 N.pl3     1 <0>        -0.6690
     10 H2         -0.2511    3.4906    0.3438 H         1 <0>         0.4304
     11 C8         -1.2190    1.6138    0.0425 C.2       1 <0>         0.6633
     12 N2         -2.3467    0.9568   -0.1232 N.2       1 <0>        -0.6454
     13 C9         -3.5241    1.6017   -0.1487 C.2       1 <0>         0.5483
     14 O1         -4.5633    0.9768   -0.3040 O.2       1 <0>        -0.5335
     15 N3         -0.0359    0.9240    0.0640 N.pl3     1 <0>        -0.8515
     16 N4         -2.3733    5.0408    0.3271 N.pl3     1 <0>        -0.8779
     17 H3         -8.4751    4.6720   -2.8087 H         1 <0>         0.0511
     18 H4         -7.8312    2.9951   -2.8157 H         1 <0>         0.0554
     19 H5         -6.8950    4.3199   -3.5872 H         1 <0>         0.0507
     20 H6         -6.5810    5.3933   -1.3629 H         1 <0>         0.0537
     21 H7         -7.5172    4.0685   -0.5914 H         1 <0>         0.0638
     22 H8         -5.8489    2.4123   -1.4110 H         1 <0>         0.0843
     23 H9         -4.9127    3.7371   -2.1825 H         1 <0>         0.0503
     24 H10        -5.2335    3.4615    2.0901 H         1 <0>         0.0425
     25 H11        -5.9349    2.1897    1.0331 H         1 <0>         0.0736
     26 H12        -6.7030    3.8113    1.1180 H         1 <0>         0.0526
     27 H13        -0.0341   -0.1689   -0.0611 H         1 <0>         0.4570
     28 H14         0.9124    1.4629    0.2064 H         1 <0>         0.4281
     29 H15        -1.4211    5.5741    0.4646 H         1 <0>         0.4164
     30 H16        -3.3200    5.6007    0.3112 H         1 <0>         0.4457
@<TRIPOS>BOND
     1    1    2 1
     2    1   17 1
     3    1   18 1
     4    1   19 1
     5    2    3 1
     6    2   20 1
     7    2   21 1
     8    3    4 1
     9    3   22 1
    10    3   23 1
    11    4    5 1
    12    4    6 1
    13    4    7 1
    14    6   24 1
    15    6   25 1
    16    6   26 1
    17    7   13 1
    18    7    8 2
    19    8    9 1
    20    8   16 1
    21    9   10 1
    22    9   11 1
    23   11   12 2
    24   11   15 1
    25   12   13 1
    26   13   14 2
    27   15   27 1
    28   15   28 1
    29   16   29 1
    30   16   30 1
@<TRIPOS>MOLECULE
ZINC41027085
   24    25     0     0     0
SMALL
USER_CHARGES

@<TRIPOS>ATOM
      1 C1         -0.0169    1.3943    0.0097 C.2       1 <0>        -0.3987
      2 C2          1.1908    2.0779    0.0018 C.2       1 <0>         0.4541
      3 N1          2.3406    1.3940   -0.0128 N.2       1 <0>        -0.5099
      4 C3          2.3503    0.0776   -0.0200 C.2       1 <0>         0.3702
      5 N2          1.1924   -0.6395   -0.0132 N.am      1 <0>        -0.6247
      6 H1          1.2235   -1.6090   -0.0190 H         1 <0>         0.4174
      7 C4          0.0021   -0.0041    0.0020 C.2       1 <0>         0.5447
      8 O1         -1.0407   -0.6392    0.0090 O.2       1 <0>        -0.5513
      9 S1          3.8927   -0.7740   -0.0393 S.3       1 <0>         0.2276
     10 C5          5.0922    0.5167   -0.0438 C.ar      1 <0>         0.1976
     11 N3          4.6838    1.7761   -0.0277 N.ar      1 <0>        -0.4082
     12 C6          5.5551    2.7711   -0.0305 C.ar      1 <0>         0.0774
     13 C7          6.9161    2.4792   -0.0507 C.ar      1 <0>         0.1275
     14 C8          7.3067    1.1431   -0.0672 C.ar      1 <0>         0.0833
     15 N4          6.3781    0.2014   -0.0578 N.ar      1 <0>        -0.4484
     16 N5          7.8692    3.5048   -0.0547 N.pl3     1 <0>        -0.8549
     17 N6          1.2057    3.4583    0.0087 N.pl3     1 <0>        -0.8268
     18 H2         -0.9535    1.9318    0.0260 H         1 <0>         0.1475
     19 H3          5.2152    3.7962   -0.0177 H         1 <0>         0.1683
     20 H4          8.3538    0.8791   -0.0831 H         1 <0>         0.1734
     21 H5          7.5842    4.4319   -0.0434 H         1 <0>         0.4063
     22 H6          8.8147    3.2883   -0.0688 H         1 <0>         0.4064
     23 H7          0.3710    3.9523    0.0190 H         1 <0>         0.4144
     24 H8          2.0509    3.9343    0.0031 H         1 <0>         0.4069
@<TRIPOS>BOND
     1    1    7 1
     2    1    2 2
     3    1   18 1
     4    2    3 1
     5    2   17 1
     6    3    4 2
     7    4    5 1
     8    4    9 1
     9    5    6 1
    10    5    7 am
    11    7    8 2
    12    9   10 1
    13   10   15 ar
    14   10   11 ar
    15   11   12 ar
    16   12   13 ar
    17   12   19 1
    18   13   14 ar
    19   13   16 1
    20   14   15 ar
    21   14   20 1
    22   16   21 1
    23   16   22 1
    24   17   23 1
    25   17   24 1
@<TRIPOS>MOLECULE
ZINC33961036
   27    27     0     0     0
SMALL
USER_CHARGES

@<TRIPOS>ATOM
      1 C1         -0.0173    1.4248    0.0099 C.3       1 <0>         0.0239
      2 O1          0.0021   -0.0041    0.0020 O.3       1 <0>        -0.3073
      3 C2         -1.2008   -0.6377    0.0101 C.ar      1 <0>         0.1115
      4 C3         -2.3732    0.1040    0.0195 C.ar      1 <0>        -0.2009
      5 C4         -3.5961   -0.5328    0.0273 C.ar      1 <0>        -0.0515
      6 C5         -3.6563   -1.9300    0.0257 C.ar      1 <0>        -0.0697
      7 C6         -2.4739   -2.6767    0.0162 C.ar      1 <0>        -0.0818
      8 C7         -1.2525   -2.0300    0.0031 C.ar      1 <0>         0.0719
      9 O2         -0.1006   -2.7529   -0.0113 O.3       1 <0>        -0.4850
     10 C8         -4.9600   -2.6125    0.0344 C.2       1 <0>         0.1490
     11 N1         -6.0622   -1.9138    0.0437 N.2       1 <0>        -0.3383
     12 N2         -7.3034   -2.5636    0.0520 N.2       1 <0>        -0.5302
     13 C9         -8.4159   -1.8583    0.0614 C.2       1 <0>         0.6504
     14 N3         -8.3592   -0.4874    0.0630 N.pl3     1 <0>        -0.8712
     15 N4         -9.6315   -2.4947    0.0696 N.pl3     1 <0>        -0.8379
     16 H1          1.0053    1.8021    0.0021 H         1 <0>         0.1020
     17 H2         -0.5445    1.7859   -0.8732 H         1 <0>         0.0570
     18 H3         -0.5275    1.7763    0.9067 H         1 <0>         0.0566
     19 H4         -2.3279    1.1830    0.0211 H         1 <0>         0.1342
     20 H5         -4.5071    0.0471    0.0349 H         1 <0>         0.1347
     21 H6         -2.5151   -3.7559    0.0149 H         1 <0>         0.1421
     22 H7          0.2406   -2.9667    0.8679 H         1 <0>         0.3871
     23 H8         -5.0047   -3.6916    0.0332 H         1 <0>         0.1088
     24 H9         -7.4998   -0.0375    0.0572 H         1 <0>         0.4213
     25 H10        -9.6716   -3.4639    0.0685 H         1 <0>         0.4210
     26 H11       -10.4508   -1.9754    0.0764 H         1 <0>         0.4094
     27 H12        -9.1784    0.0319    0.0698 H         1 <0>         0.3927
@<TRIPOS>BOND
     1    1    2 1
     2    1   16 1
     3    1   17 1
     4    1   18 1
     5    2    3 1
     6    3    8 ar
     7    3    4 ar
     8    4    5 ar
     9    4   19 1
    10    5    6 ar
    11    5   20 1
    12    6    7 ar
    13    6   10 1
    14    7    8 ar
    15    7   21 1
    16    8    9 1
    17    9   22 1
    18   10   11 2
    19   10   23 1
    20   11   12 1
    21   12   13 2
    22   13   14 1
    23   13   15 1
    24   14   24 1
    25   14   27 1
    26   15   25 1
    27   15   26 1
@<TRIPOS>MOLECULE
ZINC04628756
   31    32     0     0     0
SMALL
USER_CHARGES

@<TRIPOS>ATOM
      1 C1         -0.0108    1.4586   -0.0309 C.ar      1 <0>        -0.1471
      2 C2          1.1849    2.1537   -0.0346 C.ar      1 <0>        -0.0841
      3 C3          2.3811    1.4650   -0.0403 C.ar      1 <0>        -0.1581
      4 C4          2.3837    0.0746   -0.0411 C.ar      1 <0>         0.1919
      5 C5          1.1853   -0.6213   -0.0342 C.ar      1 <0>        -0.1276
      6 C6         -0.0106    0.0774   -0.0311 C.ar      1 <0>        -0.0830
      7 C7          1.1497   -2.1268   -0.0242 C.3       1 <0>        -0.0791
      8 C8          2.4748   -2.6972   -0.5293 C.3       1 <0>        -0.1367
      9 C9          3.6248   -2.0438    0.2481 C.3       1 <0>         0.1202
     10 N1          3.6088   -0.6054   -0.0515 N.pl3     1 <0>        -0.5746
     11 C10         4.7775    0.0628   -0.3374 C.2       1 <0>         0.6274
     12 N2          5.2418    0.0714   -1.5543 N.2       1 <0>        -0.7080
     13 N3          5.4574    0.7234    0.6649 N.pl3     1 <0>        -0.6750
     14 C11         5.0338    0.6147    1.9731 C.2       1 <0>         0.6286
     15 N4          3.8778   -0.0688    2.2667 N.pl3     1 <0>        -0.9043
     16 N5          5.7292    1.1596    2.9302 N.2       1 <0>        -0.8126
     17 H1         -0.9470    1.9971   -0.0234 H         1 <0>         0.1247
     18 H2          1.1826    3.2337   -0.0334 H         1 <0>         0.1254
     19 H3          3.3156    2.0065   -0.0446 H         1 <0>         0.1178
     20 H4         -0.9472   -0.4603   -0.0284 H         1 <0>         0.1278
     21 H5          0.9725   -2.4756    0.9932 H         1 <0>         0.0780
     22 H6          0.3408   -2.4718   -0.6682 H         1 <0>         0.0844
     23 H7          2.4926   -3.7753   -0.3700 H         1 <0>         0.0885
     24 H8          2.5836   -2.4815   -1.5922 H         1 <0>         0.0811
     25 H9          3.4831   -2.1998    1.3175 H         1 <0>         0.0766
     26 H10         4.5750   -2.4757   -0.0660 H         1 <0>         0.0911
     27 H11         6.1012    0.4798   -1.7426 H         1 <0>         0.3524
     28 H12         3.4019   -0.5406    1.5654 H         1 <0>         0.4028
     29 H13         3.5381   -0.0793    3.1752 H         1 <0>         0.3964
     30 H14         5.4314    1.0831    3.8502 H         1 <0>         0.3465
     31 H15         6.2332    1.2644    0.4497 H         1 <0>         0.4287
@<TRIPOS>BOND
     1    1    6 ar
     2    1    2 ar
     3    1   17 1
     4    2    3 ar
     5    2   18 1
     6    3    4 ar
     7    3   19 1
     8    4   10 1
     9    4    5 ar
    10    5    6 ar
    11    5    7 1
    12    6   20 1
    13    7    8 1
    14    7   21 1
    15    7   22 1
    16    8    9 1
    17    8   23 1
    18    8   24 1
    19    9   10 1
    20    9   25 1
    21    9   26 1
    22   10   11 1
    23   11   12 2
    24   11   13 1
    25   12   27 1
    26   13   14 1
    27   13   31 1
    28   14   15 1
    29   14   16 2
    30   15   28 1
    31   15   29 1
    32   16   30 1
@<TRIPOS>MOLECULE
ZINC06072593
   33    34     0     0     0
SMALL
USER_CHARGES

@<TRIPOS>ATOM
      1 C1          1.2581   -1.8589    1.9228 C.3       1 <0>        -0.1281
      2 C2          1.2382   -0.9375    0.7305 C.ar      1 <0>        -0.0688
      3 C3          1.5416   -1.4269   -0.5265 C.ar      1 <0>        -0.1152
      4 C4          1.5234   -0.5819   -1.6200 C.ar      1 <0>        -0.1015
      5 C5          1.2011    0.7527   -1.4571 C.ar      1 <0>        -0.1232
      6 C6          0.8969    1.2418   -0.2007 C.ar      1 <0>        -0.1027
      7 C7          0.9110    0.3956    0.8926 C.ar      1 <0>        -0.1137
      8 C8          0.5741    0.9276    2.2617 C.3       1 <0>        -0.0601
      9 C9         -0.9113    0.6972    2.5471 C.3       1 <0>        -0.0707
     10 H1         -1.1600   -0.3630    2.5009 H         1 <0>         0.1786
     11 C10        -1.3165    1.3012    3.8826 C.2       1 <0>         0.5264
     12 O1         -0.8386    0.9258    4.9317 O.2       1 <0>        -0.4116
     13 N1         -2.2228    2.2621    3.8266 N.am      1 <0>        -0.6394
     14 C11        -2.7707    2.6953    2.6446 C.2       1 <0>         0.5038
     15 N2         -3.6770    3.6396    2.4633 N.2       1 <0>        -0.5520
     16 C12        -4.1332    3.9046    1.2277 C.cat     1 <0>         0.7341
     17 N3         -4.2774    5.1733    0.8251 N.pl3     1 <0>        -0.7485
     18 N4         -4.4438    2.8998    0.3990 N.pl3     1 <0>        -0.7982
     19 S1         -1.9705    1.6817    1.4081 S.3       1 <0>        -0.0539
     20 H2          0.2501   -2.2265    2.1148 H         1 <0>         0.0727
     21 H3          1.9196   -2.7012    1.7201 H         1 <0>         0.0758
     22 H4          1.6191   -1.3154    2.7960 H         1 <0>         0.0735
     23 H5          1.7933   -2.4694   -0.6537 H         1 <0>         0.1289
     24 H6          1.7611   -0.9640   -2.6018 H         1 <0>         0.1281
     25 H7          1.1876    1.4132   -2.3115 H         1 <0>         0.1263
     26 H8          0.6455    2.2844   -0.0733 H         1 <0>         0.1230
     27 H9          1.1727    0.4089    3.0105 H         1 <0>         0.1202
     28 H10         0.7901    1.9953    2.2998 H         1 <0>         0.0943
     29 H11        -2.5125    2.6776    4.6539 H         1 <0>         0.4367
     30 H12        -4.0524    5.9012    1.4254 H         1 <0>         0.4489
     31 H13        -4.4730    1.9888    0.7309 H         1 <0>         0.4399
     32 H14        -4.6395    3.0829   -0.5332 H         1 <0>         0.4363
     33 H15        -4.6068    5.3646   -0.0670 H         1 <0>         0.4401
@<TRIPOS>BOND
     1    1    2 1
     2    1   20 1
     3    1   21 1
     4    1   22 1
     5    2    7 ar
     6    2    3 ar
     7    3    4 ar
     8    3   23 1
     9    4    5 ar
    10    4   24 1
    11    5    6 ar
    12    5   25 1
    13    6    7 ar
    14    6   26 1
    15    7    8 1
    16    8    9 1
    17    8   27 1
    18    8   28 1
    19    9   10 1
    20    9   19 1
    21    9   11 1
    22   11   12 2
    23   11   13 am
    24   13   14 1
    25   13   29 1
    26   14   15 2
    27   14   19 1
    28   15   16 1
    29   16   17 2
    30   16   18 1
    31   17   30 1
    32   17   33 1
    33   18   31 1
    34   18   32 1
@<TRIPOS>MOLECULE
ZINC12340640
   51    54     0     0     0
SMALL
USER_CHARGES
2-amino-9-[(2S,3S,4R,5S)-3,4-dihydroxy-5-(hydroxymethyl)tetrahydrofuran-2-yl]-8-(4-methylpiperazin-1-yl)-1H-purin-6-one
@<TRIPOS>ATOM
      1 C1          4.6203    8.7056   -0.5820 C.3       1 <0>        -0.0402
      2 C2          3.9870    6.6177   -1.6330 C.3       1 <0>         0.0052
      3 C3          3.1301    5.3608   -1.4647 C.3       1 <0>         0.0361
      4 N1          3.5741    4.6243   -0.2730 N.pl3     1 <0>        -0.4590
      5 C4          3.4579    5.4582    0.9315 C.3       1 <0>         0.0317
      6 C5          4.3147    6.7151    0.7632 C.3       1 <0>         0.0051
      7 C6          2.8685    3.4439   -0.1285 C.2       1 <0>         0.3841
      8 N2          1.5745    3.3552    0.0443 N.2       1 <0>        -0.4156
      9 C7          1.2250    2.0457    0.1485 C.2       1 <0>        -0.1246
     10 C8         -0.0008    1.3693    0.3385 C.2       1 <0>         0.5923
     11 O1         -1.0464    1.9886    0.4428 O.2       1 <0>        -0.4972
     12 N3          0.0128    0.0193    0.3963 N.am      1 <0>        -0.6408
     13 H1         -0.8423   -0.4817    0.5299 H         1 <0>         0.4373
     14 C9          1.1865   -0.6627    0.2734 C.2       1 <0>         0.6202
     15 N4          2.3326   -0.0446    0.0963 N.2       1 <0>        -0.5569
     16 C10         2.3952    1.2905    0.0289 C.2       1 <0>         0.3298
     17 N5          3.4171    2.1903   -0.1445 N.pl3     1 <0>        -0.4285
     18 C11         4.8359    1.8676   -0.3149 C.3       1 <0>         0.3095
     19 H2          5.4496    2.7497   -0.1321 H         1 <0>         0.1294
     20 C12         5.0954    1.3168   -1.7346 C.3       1 <0>         0.0831
     21 H3          4.1836    0.8881   -2.1505 H         1 <0>         0.0850
     22 C13         6.1619    0.2192   -1.5224 C.3       1 <0>         0.0501
     23 H4          5.7774   -0.7521   -1.8334 H         1 <0>         0.0885
     24 C14         6.4207    0.2367    0.0004 C.3       1 <0>         0.0526
     25 H5          7.2800    0.8660    0.2321 H         1 <0>         0.0970
     26 O2          5.2182    0.7960    0.5747 O.3       1 <0>        -0.3350
     27 C15         6.6477   -1.1849    0.5184 C.3       1 <0>         0.0821
     28 O3          6.9995   -1.1370    1.9026 O.3       1 <0>        -0.5651
     29 O4          7.3576    0.5380   -2.2371 O.3       1 <0>        -0.5422
     30 O5          5.5968    2.3478   -2.5877 O.3       1 <0>        -0.5387
     31 N6          1.1708   -2.0345    0.3359 N.pl3     1 <0>        -0.7433
     32 H6          4.2263    9.2626   -1.4321 H         1 <0>         0.1235
     33 H7          4.5173    9.3036    0.3234 H         1 <0>         0.1233
     34 H8          5.6734    8.4810   -0.7514 H         1 <0>         0.1245
     35 H9          5.0286    6.3310   -1.7777 H         1 <0>         0.1427
     36 H10         3.6406    7.1806   -2.4998 H         1 <0>         0.1411
     37 H11         3.2376    4.7269   -2.3449 H         1 <0>         0.1271
     38 H12         2.0848    5.6463   -1.3473 H         1 <0>         0.0823
     39 H13         2.4162    5.7449    1.0762 H         1 <0>         0.0839
     40 H14         3.8043    4.8953    1.7983 H         1 <0>         0.1251
     41 H15         5.3601    6.4296    0.6457 H         1 <0>         0.1413
     42 H16         4.2073    7.3490    1.6434 H         1 <0>         0.1415
     43 H17         5.7341   -1.7666    0.3956 H         1 <0>         0.0624
     44 H18         7.4548   -1.6526   -0.0455 H         1 <0>         0.0666
     45 H19         7.1585   -2.0049    2.2983 H         1 <0>         0.3886
     46 H20         8.0612   -0.1180   -2.1390 H         1 <0>         0.3912
     47 H21         5.7773    2.0568   -3.4921 H         1 <0>         0.3956
     48 H22         0.8050   -2.3237    1.2205 H         1 <0>         0.3801
     49 H23         1.9982   -2.5334    0.2500 H         1 <0>         0.3986
     50 N7          3.8437    7.4573   -0.4249 N.4       1 <0>        -0.4011
     51 H24         2.8527    7.6946   -0.2989 H         1 <0>         0.4301
@<TRIPOS>BOND
     1    1   32 1
     2    1   33 1
     3    1   34 1
     4    1   50 1
     5    2    3 1
     6    2   35 1
     7    2   36 1
     8    2   50 1
     9    3    4 1
    10    3   37 1
    11    3   38 1
    12    4    5 1
    13    4    7 1
    14    5    6 1
    15    5   39 1
    16    5   40 1
    17    6   41 1
    18    6   42 1
    19    6   50 1
    20    7   17 1
    21    7    8 2
    22    8    9 1
    23    9   16 2
    24    9   10 1
    25   10   11 2
    26   10   12 am
    27   12   13 1
    28   12   14 1
    29   14   15 2
    30   14   31 1
    31   15   16 1
    32   16   17 1
    33   17   18 1
    34   18   19 1
    35   18   26 1
    36   18   20 1
    37   20   21 1
    38   20   22 1
    39   20   30 1
    40   22   23 1
    41   22   24 1
    42   22   29 1
    43   24   25 1
    44   24   26 1
    45   24   27 1
    46   27   28 1
    47   27   43 1
    48   27   44 1
    49   28   45 1
    50   29   46 1
    51   30   47 1
    52   31   48 1
    53   31   49 1
    54   50   51 1
@<TRIPOS>MOLECULE
ZINC16958844
   55    56     0     0     0
SMALL
USER_CHARGES
(2S,3R,4R,5R,6R)-4-but-3-enyl-2-[(2S,3S,4R,5S)-3,4-dihydroxy-2,5-bis(hydroxymethyl)tetrahydrofuran-2-yl]oxy-6-(hydroxymethyl)tetrahydropyran-3,4,5-triol
@<TRIPOS>ATOM
      1 C1         -1.9617   -4.9147   -1.3669 C.2       1 <0>        -0.1925
      2 C2         -1.4473   -4.7440   -0.1743 C.2       1 <0>        -0.1525
      3 C3          0.0194   -5.0008    0.0575 C.3       1 <0>        -0.0967
      4 C4          0.6651   -3.7552    0.6679 C.3       1 <0>        -0.1320
      5 C5          2.1427   -4.0334    0.9511 C.3       1 <0>         0.1587
      6 C6          2.2660   -5.2264    1.9040 C.3       1 <0>         0.0907
      7 H1          1.7654   -6.0922    1.4704 H         1 <0>         0.0796
      8 C7          3.7475   -5.5467    2.1191 C.3       1 <0>         0.0787
      9 H2          4.2388   -4.6952    2.5901 H         1 <0>         0.0865
     10 O1          4.3635   -5.8149    0.8579 O.3       1 <0>        -0.3608
     11 C8          4.3206   -4.7183   -0.0573 C.3       1 <0>         0.2400
     12 H3          4.8197   -3.8560    0.3849 H         1 <0>         0.0861
     13 C9          2.8622   -4.3647   -0.3599 C.3       1 <0>         0.0626
     14 H4          2.3736   -5.2131   -0.8392 H         1 <0>         0.0763
     15 O2          2.8160   -3.2317   -1.2295 O.3       1 <0>        -0.5505
     16 O3          4.9839   -5.0830   -1.2694 O.3       1 <0>        -0.3423
     17 C10         6.4059   -4.9521   -1.2159 C.3       1 <0>         0.2684
     18 C11         7.0185   -5.3286   -2.5788 C.3       1 <0>         0.1070
     19 H5          7.7560   -6.1223   -2.4594 H         1 <0>         0.0906
     20 C12         7.6989   -4.0248   -3.0622 C.3       1 <0>         0.0453
     21 H6          8.7641   -4.0332   -2.8311 H         1 <0>         0.0865
     22 C13         6.9609   -2.9455   -2.2299 C.3       1 <0>         0.0472
     23 H7          6.0037   -2.6958   -2.6877 H         1 <0>         0.0934
     24 O4          6.7612   -3.5854   -0.9472 O.3       1 <0>        -0.3424
     25 C14         7.8295   -1.6952   -2.0777 C.3       1 <0>         0.0830
     26 O5          7.0840   -0.6758   -1.4089 O.3       1 <0>        -0.5606
     27 O6          7.4846   -3.8260   -4.4610 O.3       1 <0>        -0.5439
     28 O7          5.9961   -5.7309   -3.4927 O.3       1 <0>        -0.5224
     29 C15         6.9710   -5.8611   -0.1226 C.3       1 <0>         0.0748
     30 O8          6.5540   -5.3823    1.1576 O.3       1 <0>        -0.5340
     31 C16         3.8781   -6.7748    3.0223 C.3       1 <0>         0.0855
     32 O9          5.2572   -7.0037    3.3185 O.3       1 <0>        -0.5586
     33 O10         1.6608   -4.9013    3.1570 O.3       1 <0>        -0.5390
     34 O11         2.7402   -2.8809    1.5483 O.3       1 <0>        -0.5397
     35 H8         -1.3346   -5.2395   -2.1840 H         1 <0>         0.0955
     36 H9         -3.0138   -4.7349   -1.5320 H         1 <0>         0.0976
     37 H10        -2.0744   -4.4192    0.6429 H         1 <0>         0.1092
     38 H11         0.1375   -5.8426    0.7398 H         1 <0>         0.0724
     39 H12         0.5023   -5.2321   -0.8919 H         1 <0>         0.0682
     40 H13         0.5795   -2.9224   -0.0301 H         1 <0>         0.0779
     41 H14         0.1580   -3.5024    1.5991 H         1 <0>         0.0840
     42 H15         3.2536   -3.3709   -2.0805 H         1 <0>         0.3906
     43 H16         8.7172   -1.9384   -1.4938 H         1 <0>         0.0570
     44 H17         8.1292   -1.3388   -3.0632 H         1 <0>         0.0601
     45 H18         7.5737    0.1476   -1.2778 H         1 <0>         0.3833
     46 H19         7.8919   -3.0218   -4.8109 H         1 <0>         0.3882
     47 H20         6.3258   -5.9791   -4.3672 H         1 <0>         0.3869
     48 H21         6.6030   -6.8766   -0.2682 H         1 <0>         0.0691
     49 H22         8.0598   -5.8582   -0.1745 H         1 <0>         0.0517
     50 H23         6.9444   -5.8598    1.9024 H         1 <0>         0.3814
     51 H24         3.3308   -6.6039    3.9493 H         1 <0>         0.0593
     52 H25         3.4665   -7.6460    2.5126 H         1 <0>         0.0532
     53 H26         5.4153   -7.7687    3.8884 H         1 <0>         0.3793
     54 H27         1.7024   -5.6130    3.8103 H         1 <0>         0.3768
     55 H28         2.7005   -2.0872    0.9974 H         1 <0>         0.3854
@<TRIPOS>BOND
     1    1    2 2
     2    1   35 1
     3    1   36 1
     4    2    3 1
     5    2   37 1
     6    3    4 1
     7    3   38 1
     8    3   39 1
     9    4    5 1
    10    4   40 1
    11    4   41 1
    12    5   13 1
    13    5    6 1
    14    5   34 1
    15    6    7 1
    16    6    8 1
    17    6   33 1
    18    8    9 1
    19    8   10 1
    20    8   31 1
    21   10   11 1
    22   11   12 1
    23   11   13 1
    24   11   16 1
    25   13   14 1
    26   13   15 1
    27   15   42 1
    28   16   17 1
    29   17   24 1
    30   17   18 1
    31   17   29 1
    32   18   19 1
    33   18   20 1
    34   18   28 1
    35   20   21 1
    36   20   22 1
    37   20   27 1
    38   22   23 1
    39   22   24 1
    40   22   25 1
    41   25   26 1
    42   25   43 1
    43   25   44 1
    44   26   45 1
    45   27   46 1
    46   28   47 1
    47   29   30 1
    48   29   48 1
    49   29   49 1
    50   30   50 1
    51   31   32 1
    52   31   51 1
    53   31   52 1
    54   32   53 1
    55   33   54 1
    56   34   55 1
@<TRIPOS>MOLECULE
ZINC35297447
   47    49     0     0     0
SMALL
USER_CHARGES

@<TRIPOS>ATOM
      1 C1         -0.0161    1.3387    0.0094 C.2       1 <0>        -0.0411
      2 C2          1.2600    1.7745   -0.0004 C.2       1 <0>        -0.0192
      3 N1          2.0523    0.6653   -0.0134 N.pl3     1 <0>        -0.4405
      4 C3          1.2362   -0.4154   -0.0124 C.2       1 <0>         0.1647
      5 N2          0.0021   -0.0041    0.0020 N.2       1 <0>        -0.4782
      6 C4          1.7268   -1.8438   -0.0270 C.3       1 <0>         0.1756
      7 H1          1.6254   -2.2776    0.9678 H         1 <0>         0.0905
      8 C5          3.2037   -1.8394   -0.4415 C.3       1 <0>         0.0929
      9 H2          3.2843   -1.5876   -1.4989 H         1 <0>         0.0838
     10 C6          3.9585   -0.7988    0.3910 C.3       1 <0>         0.0955
     11 H3          5.0300   -0.9071    0.2231 H         1 <0>         0.1157
     12 C7          3.5159    0.6082   -0.0255 C.3       1 <0>         0.1442
     13 H4          3.8817    0.8239   -1.0294 H         1 <0>         0.1151
     14 C8          4.0773    1.6353    0.9598 C.3       1 <0>         0.0773
     15 O1          3.7480    2.9524    0.5140 O.3       1 <0>        -0.5721
     16 O2          3.6709   -0.9977    1.7765 O.3       1 <0>        -0.3468
     17 C9          4.5709   -1.8917    2.4344 C.3       1 <0>         0.2234
     18 H5          4.6631   -2.8085    1.8521 H         1 <0>         0.0810
     19 C10         4.0323   -2.2243    3.8283 C.3       1 <0>         0.0661
     20 H6          3.0743   -2.7360    3.7361 H         1 <0>         0.0678
     21 C11         5.0313   -3.1343    4.5495 C.3       1 <0>         0.0794
     22 H7          5.1250   -4.0751    4.0071 H         1 <0>         0.0793
     23 C12         6.3938   -2.4363    4.6041 C.3       1 <0>         0.0910
     24 H8          7.1246   -3.0997    5.0666 H         1 <0>         0.0734
     25 C13         6.8412   -2.0956    3.1802 C.3       1 <0>         0.1161
     26 H9          6.9633   -3.0151    2.6077 H         1 <0>         0.0806
     27 O3          5.8534   -1.2732    2.5556 O.3       1 <0>        -0.3735
     28 C14         8.1734   -1.3448    3.2299 C.3       1 <0>         0.0894
     29 O4          8.6486   -1.1292    1.8996 O.3       1 <0>        -0.5695
     30 O5          6.2850   -1.2361    5.3719 O.3       1 <0>        -0.5297
     31 O6          4.5708   -3.3920    5.8775 O.3       1 <0>        -0.5481
     32 O7          3.8593   -1.0175    4.5739 O.3       1 <0>        -0.5227
     33 O8          3.7669   -3.1330   -0.2147 O.3       1 <0>        -0.5552
     34 O9          0.9643   -2.6058   -0.9651 O.3       1 <0>        -0.5539
     35 H10        -0.8987    1.9610    0.0252 H         1 <0>         0.1718
     36 H11         1.5903    2.8027    0.0013 H         1 <0>         0.1858
     37 H12         3.6449    1.4668    1.9460 H         1 <0>         0.0686
     38 H13         5.1609    1.5309    1.0154 H         1 <0>         0.0740
     39 H14         4.0731    3.6561    1.0921 H         1 <0>         0.3900
     40 H15         8.0309   -0.3842    3.7249 H         1 <0>         0.0686
     41 H16         8.9026   -1.9350    3.7850 H         1 <0>         0.0637
     42 H17         9.4914   -0.6572    1.8546 H         1 <0>         0.3839
     43 H18         6.0008   -1.3778    6.2852 H         1 <0>         0.3849
     44 H19         3.7086   -3.8280    5.9171 H         1 <0>         0.3867
     45 H20         3.2415   -0.3918    4.1716 H         1 <0>         0.3777
     46 H21         3.3343   -3.8425   -0.7091 H         1 <0>         0.3946
     47 H22         0.0173   -2.6337   -0.7718 H         1 <0>         0.3973
@<TRIPOS>BOND
     1    1    5 1
     2    1    2 2
     3    1   35 1
     4    2    3 1
     5    2   36 1
     6    3   12 1
     7    3    4 1
     8    4    5 2
     9    4    6 1
    10    6    7 1
    11    6    8 1
    12    6   34 1
    13    8    9 1
    14    8   10 1
    15    8   33 1
    16   10   11 1
    17   10   12 1
    18   10   16 1
    19   12   13 1
    20   12   14 1
    21   14   15 1
    22   14   37 1
    23   14   38 1
    24   15   39 1
    25   16   17 1
    26   17   18 1
    27   17   27 1
    28   17   19 1
    29   19   20 1
    30   19   21 1
    31   19   32 1
    32   21   22 1
    33   21   23 1
    34   21   31 1
    35   23   24 1
    36   23   25 1
    37   23   30 1
    38   25   26 1
    39   25   27 1
    40   25   28 1
    41   28   29 1
    42   28   40 1
    43   28   41 1
    44   29   42 1
    45   30   43 1
    46   31   44 1
    47   32   45 1
    48   33   46 1
    49   34   47 1
@<TRIPOS>MOLECULE
ZINC39937192
   45    46     0     0     0
SMALL
USER_CHARGES

@<TRIPOS>ATOM
      1 C1         -0.0187    1.5258    0.0104 C.3       1 <0>         0.0874
      2 C2          0.0021   -0.0041    0.0020 C.3       1 <0>         0.1064
      3 H1          0.5883   -0.3550   -0.8473 H         1 <0>         0.0955
      4 C3         -1.4298   -0.5335   -0.1124 C.3       1 <0>         0.0950
      5 H2         -2.0272   -0.1498    0.7147 H         1 <0>         0.0826
      6 C4         -1.4057   -2.0641   -0.0595 C.3       1 <0>         0.0856
      7 H3         -2.4264   -2.4459   -0.0842 H         1 <0>         0.0697
      8 C5         -0.7236   -2.5086    1.2379 C.3       1 <0>         0.0577
      9 H4         -0.6525   -3.5961    1.2581 H         1 <0>         0.0787
     10 C6          0.6811   -1.9029    1.3002 C.3       1 <0>         0.2163
     11 H5          1.1554   -2.1809    2.2413 H         1 <0>         0.1021
     12 O1          0.5890   -0.4794    1.2152 O.3       1 <0>        -0.3670
     13 O2          1.4614   -2.3960    0.2093 O.3       1 <0>        -0.3702
     14 C7          2.8509   -2.0738    0.2963 C.3       1 <0>         0.0768
     15 C8          3.5846   -2.6485   -0.9172 C.3       1 <0>         0.1218
     16 H6          3.3901   -3.7188   -0.9862 H         1 <0>         0.0754
     17 C9          5.0892   -2.4118   -0.7632 C.3       1 <0>         0.0899
     18 H7          5.2807   -1.3444   -0.6533 H         1 <0>         0.0865
     19 C10         5.8107   -2.9356   -2.0088 C.3       1 <0>         0.0829
     20 H8          5.6603   -4.0120   -2.0917 H         1 <0>         0.0806
     21 C11         5.2367   -2.2412   -3.2477 C.3       1 <0>         0.0571
     22 H9          5.7059   -2.6481   -4.1435 H         1 <0>         0.0747
     23 C12         3.7264   -2.4845   -3.3057 C.3       1 <0>         0.2377
     24 H10         3.5338   -3.5526   -3.4062 H         1 <0>         0.0601
     25 O3          3.1209   -2.0023   -2.1044 O.3       1 <0>        -0.3717
     26 O4          3.1751   -1.7932   -4.4283 O.3       1 <0>        -0.5421
     27 O5          5.4929   -0.8375   -3.1701 O.3       1 <0>        -0.5392
     28 O6          7.2080   -2.6547   -1.9055 O.3       1 <0>        -0.5482
     29 O7          5.5657   -3.1040    0.3926 O.3       1 <0>        -0.5580
     30 O8         -1.4888   -2.0592    2.3580 O.3       1 <0>        -0.5435
     31 O9         -0.6790   -2.5698   -1.1813 O.3       1 <0>        -0.5219
     32 O10        -1.9994   -0.1061   -1.3513 O.3       1 <0>        -0.5490
     33 O11         1.3220    2.0204    0.0003 O.3       1 <0>        -0.5648
     34 H11        -0.5459    1.8868   -0.8726 H         1 <0>         0.0701
     35 H12        -0.5289    1.8773    0.9072 H         1 <0>         0.0493
     36 H13         2.9723   -0.9908    0.3149 H         1 <0>         0.0712
     37 H14         3.2667   -2.5018    1.2084 H         1 <0>         0.0766
     38 H15         2.2195   -1.9030   -4.5272 H         1 <0>         0.3971
     39 H16         5.1561   -0.3340   -3.9237 H         1 <0>         0.3878
     40 H17         7.7274   -2.9596   -2.6620 H         1 <0>         0.3858
     41 H18         6.5136   -2.9979    0.5516 H         1 <0>         0.3928
     42 H19        -1.1142   -2.3060    3.2147 H         1 <0>         0.3872
     43 H20        -0.6237   -3.5347   -1.2115 H         1 <0>         0.3757
     44 H21        -2.9080   -0.4062   -1.4908 H         1 <0>         0.3815
     45 H22         1.3852    2.9853    0.0049 H         1 <0>         0.3797
@<TRIPOS>BOND
     1    1    2 1
     2    1   33 1
     3    1   34 1
     4    1   35 1
     5    2    3 1
     6    2   12 1
     7    2    4 1
     8    4    5 1
     9    4    6 1
    10    4   32 1
    11    6    7 1
    12    6    8 1
    13    6   31 1
    14    8    9 1
    15    8   10 1
    16    8   30 1
    17   10   11 1
    18   10   12 1
    19   10   13 1
    20   13   14 1
    21   14   15 1
    22   14   36 1
    23   14   37 1
    24   15   16 1
    25   15   25 1
    26   15   17 1
    27   17   18 1
    28   17   19 1
    29   17   29 1
    30   19   20 1
    31   19   21 1
    32   19   28 1
    33   21   22 1
    34   21   23 1
    35   21   27 1
    36   23   24 1
    37   23   25 1
    38   23   26 1
    39   26   38 1
    40   27   39 1
    41   28   40 1
    42   29   41 1
    43   30   42 1
    44   31   43 1
    45   32   44 1
    46   33   45 1
@<TRIPOS>MOLECULE
ZINC38792148
   45    46     0     0     0
SMALL
USER_CHARGES

@<TRIPOS>ATOM
      1 C1         -0.0187    1.5258    0.0104 C.3       1 <0>         0.0888
      2 C2          0.0021   -0.0041    0.0020 C.3       1 <0>         0.1106
      3 H1          0.5883   -0.3550   -0.8473 H         1 <0>         0.0847
      4 C3         -1.4298   -0.5335   -0.1124 C.3       1 <0>         0.0876
      5 H2         -1.8639   -0.2084   -1.0579 H         1 <0>         0.0853
      6 C4         -1.4057   -2.0641   -0.0595 C.3       1 <0>         0.0849
      7 H3         -0.8501   -2.4498   -0.9143 H         1 <0>         0.0748
      8 C5         -0.7236   -2.5086    1.2379 C.3       1 <0>         0.0628
      9 H4         -1.3066   -2.1648    2.0923 H         1 <0>         0.0880
     10 C6          0.6811   -1.9029    1.3002 C.3       1 <0>         0.2309
     11 H5          1.2762   -2.2788    0.4679 H         1 <0>         0.0620
     12 O1          0.5890   -0.4794    1.2152 O.3       1 <0>        -0.3750
     13 O2          1.3031   -2.2676    2.5339 O.3       1 <0>        -0.3600
     14 C7          2.6640   -1.8463    2.6456 C.3       1 <0>         0.0793
     15 C8          3.2253   -2.2883    3.9985 C.3       1 <0>         0.1175
     16 H6          2.5868   -1.9115    4.7976 H         1 <0>         0.0805
     17 C9          4.6409   -1.7312    4.1705 C.3       1 <0>         0.0917
     18 H7          5.2698   -2.0747    3.3492 H         1 <0>         0.0856
     19 C10         5.2184   -2.2274    5.4997 C.3       1 <0>         0.0821
     20 H8          4.6181   -1.8429    6.3243 H         1 <0>         0.0823
     21 C11         5.1904   -3.7588    5.5159 C.3       1 <0>         0.0573
     22 H9          5.5484   -4.1194    6.4803 H         1 <0>         0.0765
     23 C12         3.7536   -4.2376    5.2920 C.3       1 <0>         0.2366
     24 H10         3.1221   -3.8865    6.1081 H         1 <0>         0.0635
     25 O3          3.2663   -3.7156    4.0541 O.3       1 <0>        -0.3825
     26 O4          3.7283   -5.6657    5.2502 O.3       1 <0>        -0.5416
     27 O5          6.0307   -4.2628    4.4758 O.3       1 <0>        -0.5398
     28 O6          6.5656   -1.7707    5.6357 O.3       1 <0>        -0.5476
     29 O7          4.5951   -0.3029    4.1719 O.3       1 <0>        -0.5539
     30 O8         -0.6318   -3.9344    1.2650 O.3       1 <0>        -0.5600
     31 O9         -2.7437   -2.5648   -0.0939 O.3       1 <0>        -0.5560
     32 O10        -2.2133   -0.0293    0.9711 O.3       1 <0>        -0.5457
     33 O11         1.3220    2.0204    0.0003 O.3       1 <0>        -0.5676
     34 H11        -0.5459    1.8868   -0.8726 H         1 <0>         0.0650
     35 H12        -0.5289    1.8773    0.9072 H         1 <0>         0.0692
     36 H13         3.2505   -2.2960    1.8444 H         1 <0>         0.0618
     37 H14         2.7156   -0.7603    2.5681 H         1 <0>         0.0950
     38 H15         2.8474   -6.0395    5.1107 H         1 <0>         0.3960
     39 H16         6.0606   -5.2282    4.4274 H         1 <0>         0.3875
     40 H17         6.9942   -2.0488    6.4566 H         1 <0>         0.3863
     41 H18         5.4592    0.1182    4.2772 H         1 <0>         0.3931
     42 H19        -0.2092   -4.2863    2.0604 H         1 <0>         0.3942
     43 H20        -2.8037   -3.5294   -0.0635 H         1 <0>         0.3951
     44 H21        -3.1339   -0.3252    0.9618 H         1 <0>         0.3885
     45 H22         1.3852    2.9853    0.0049 H         1 <0>         0.3846
@<TRIPOS>BOND
     1    1    2 1
     2    1   33 1
     3    1   34 1
     4    1   35 1
     5    2    3 1
     6    2   12 1
     7    2    4 1
     8    4    5 1
     9    4    6 1
    10    4   32 1
    11    6    7 1
    12    6    8 1
    13    6   31 1
    14    8    9 1
    15    8   10 1
    16    8   30 1
    17   10   11 1
    18   10   12 1
    19   10   13 1
    20   13   14 1
    21   14   15 1
    22   14   36 1
    23   14   37 1
    24   15   16 1
    25   15   25 1
    26   15   17 1
    27   17   18 1
    28   17   19 1
    29   17   29 1
    30   19   20 1
    31   19   21 1
    32   19   28 1
    33   21   22 1
    34   21   23 1
    35   21   27 1
    36   23   24 1
    37   23   25 1
    38   23   26 1
    39   26   38 1
    40   27   39 1
    41   28   40 1
    42   29   41 1
    43   30   42 1
    44   31   43 1
    45   32   44 1
    46   33   45 1
@<TRIPOS>MOLECULE
ZINC19835208
   36    38     0     0     0
SMALL
USER_CHARGES
(2R,4R)-4-hydroxy-1-(4,5,6,7-tetrahydrobenzothiophene-2-carbonyl)pyrrolidine-2-carboxylic acid
@<TRIPOS>ATOM
      1 C1          5.7273    0.5902   -3.4924 C.2       1 <0>        -0.0801
      2 C2          5.8684   -0.7020   -3.9715 C.2       1 <0>        -0.1349
      3 C3          4.8569   -1.5759   -3.6908 C.2       1 <0>        -0.1918
      4 S1          3.7208   -0.6611   -2.7750 S.3       1 <0>         0.1464
      5 C4          4.5930    0.8961   -2.7633 C.2       1 <0>        -0.2065
      6 C5          4.2052    2.1684   -2.1472 C.2       1 <0>         0.6176
      7 O1          4.9344    3.1381   -2.2430 O.2       1 <0>        -0.5129
      8 N1          3.0412    2.2643   -1.4747 N.am      1 <0>        -0.5880
      9 C6          2.0680    1.1739   -1.2818 C.3       1 <0>         0.1095
     10 C7          1.2864    1.5618   -0.0018 C.3       1 <0>         0.1062
     11 H1          1.6980    1.1915    0.9487 H         1 <0>         0.0725
     12 C8          1.1865    3.1027   -0.1528 C.3       1 <0>        -0.1289
     13 C9          2.5321    3.4735   -0.8112 C.3       1 <0>         0.0954
     14 H2          3.2790    3.8214   -0.0824 H         1 <0>         0.0845
     15 C10         2.3215    4.5658   -1.8278 C.2       1 <0>         0.4653
     16 O2          2.2401    4.2911   -3.0016 O.co2     1 <0>        -0.6223
     17 O3          2.2243    5.8439   -1.4293 O.co2     1 <0>        -0.7654
     18 O4         -0.0110    0.9628    0.0073 O.3       1 <0>        -0.6022
     19 C11         4.7676   -3.0145   -4.0975 C.3       1 <0>        -0.0402
     20 C12         5.8076   -3.2722   -5.1974 C.3       1 <0>        -0.1140
     21 C13         7.1492   -2.6817   -4.7544 C.3       1 <0>        -0.1182
     22 C14         7.0808   -1.1544   -4.7812 C.3       1 <0>        -0.0592
     23 H3          6.4842    1.3373   -3.6803 H         1 <0>         0.1423
     24 H4          1.4077    1.1123   -2.1594 H         1 <0>         0.0844
     25 H5          2.6042    0.2213   -1.1588 H         1 <0>         0.0766
     26 H6          0.3224    3.3539   -0.7854 H         1 <0>         0.0876
     27 H7          1.0602    3.5609    0.8392 H         1 <0>         0.0836
     28 H8         -0.6932    1.1411    0.8516 H         1 <0>         0.4098
     29 H9          4.9734   -3.6550   -3.2272 H         1 <0>         0.0822
     30 H10         3.7573   -3.2261   -4.4777 H         1 <0>         0.0811
     31 H11         5.9113   -4.3556   -5.3574 H         1 <0>         0.0706
     32 H12         5.4795   -2.7934   -6.1318 H         1 <0>         0.0682
     33 H13         7.3773   -3.0164   -3.7317 H         1 <0>         0.0649
     34 H14         7.9424   -3.0211   -5.4368 H         1 <0>         0.0669
     35 H15         6.9801   -0.8040   -5.8190 H         1 <0>         0.0746
     36 H16         7.9953   -0.7325   -4.3389 H         1 <0>         0.0743
@<TRIPOS>BOND
     1    1    5 2
     2    1    2 1
     3    1   23 1
     4    2   22 1
     5    2    3 2
     6    3    4 1
     7    3   19 1
     8    4    5 1
     9    5    6 1
    10    6    7 2
    11    6    8 am
    12    8   13 1
    13    8    9 1
    14    9   10 1
    15    9   24 1
    16    9   25 1
    17   10   11 1
    18   10   12 1
    19   10   18 1
    20   12   13 1
    21   12   26 1
    22   12   27 1
    23   13   14 1
    24   13   15 1
    25   15   16 2
    26   15   17 1
    27   18   28 1
    28   19   20 1
    29   19   29 1
    30   19   30 1
    31   20   21 1
    32   20   31 1
    33   20   32 1
    34   21   22 1
    35   21   33 1
    36   21   34 1
    37   22   35 1
    38   22   36 1
@<TRIPOS>MOLECULE
ZINC37433000
   35    36     0     0     0
SMALL
USER_CHARGES

@<TRIPOS>ATOM
      1 C1         -0.0187    1.5258    0.0104 C.3       1 <0>        -0.1419
      2 C2          0.0021   -0.0041    0.0020 C.3       1 <0>        -0.0865
      3 C3          0.7421   -0.5109    1.2415 C.3       1 <0>        -0.1430
      4 C4         -1.4333   -0.5336    0.0129 C.3       1 <0>         0.0814
      5 H1         -1.9435   -0.1821    0.9097 H         1 <0>         0.0817
      6 C5         -1.4129   -2.0405    0.0046 C.2       1 <0>         0.4924
      7 O1         -1.0341   -2.6504    0.9900 O.co2     1 <0>        -0.6921
      8 O2         -1.7752   -2.6496   -0.9875 O.co2     1 <0>        -0.6891
      9 N1         -2.1419   -0.0483   -1.1740 N.am      1 <0>        -0.6925
     10 C6         -3.4850    0.0621   -1.1588 C.2       1 <0>         0.5486
     11 O3         -4.1087   -0.2411   -0.1599 O.2       1 <0>        -0.5055
     12 C7         -4.1981    0.5505   -2.3532 C.ar      1 <0>        -0.0855
     13 C8         -3.4938    0.8929   -3.4985 C.ar      1 <0>        -0.0720
     14 C9         -4.1571    1.3538   -4.6281 C.ar      1 <0>        -0.1195
     15 C10        -5.5144    1.4828   -4.6433 C.ar      1 <0>        -0.0850
     16 C11        -6.2661    1.1478   -3.5053 C.ar      1 <0>        -0.1097
     17 C12        -5.6108    0.6694   -2.3450 C.ar      1 <0>         0.1591
     18 N2         -6.3221    0.3451   -1.2646 N.ar      1 <0>        -0.4282
     19 C13        -7.6299    0.4533   -1.2504 C.ar      1 <0>         0.1248
     20 C14        -8.3382    0.9105   -2.3584 C.ar      1 <0>        -0.1757
     21 C15        -7.6686    1.2722   -3.4933 C.ar      1 <0>        -0.0640
     22 H2          1.0039    1.9031    0.0027 H         1 <0>         0.0488
     23 H3         -0.5459    1.8868   -0.8726 H         1 <0>         0.0480
     24 H4         -0.5289    1.8773    0.9072 H         1 <0>         0.0514
     25 H5          0.5123   -0.3556   -0.8948 H         1 <0>         0.0646
     26 H6          0.2319   -0.1594    2.1383 H         1 <0>         0.0484
     27 H7          0.7568   -1.6008    1.2356 H         1 <0>         0.0877
     28 H8          1.7647   -0.1336    1.2338 H         1 <0>         0.0390
     29 H9         -1.6443    0.1935   -1.9708 H         1 <0>         0.3858
     30 H10        -2.4178    0.8004   -3.5115 H         1 <0>         0.1345
     31 H11        -3.5887    1.6147   -5.5086 H         1 <0>         0.1323
     32 H12        -6.0120    1.8433   -5.5314 H         1 <0>         0.1308
     33 H13        -8.1706    0.1804   -0.3562 H         1 <0>         0.1583
     34 H14        -9.4146    0.9887   -2.3175 H         1 <0>         0.1354
     35 H15        -8.2015    1.6296   -4.3620 H         1 <0>         0.1371
@<TRIPOS>BOND
     1    1    2 1
     2    1   22 1
     3    1   23 1
     4    1   24 1
     5    2    3 1
     6    2    4 1
     7    2   25 1
     8    3   26 1
     9    3   27 1
    10    3   28 1
    11    4    5 1
    12    4    6 1
    13    4    9 1
    14    6    7 2
    15    6    8 1
    16    9   10 am
    17    9   29 1
    18   10   11 2
    19   10   12 1
    20   12   17 ar
    21   12   13 ar
    22   13   14 ar
    23   13   30 1
    24   14   15 ar
    25   14   31 1
    26   15   16 ar
    27   15   32 1
    28   16   21 ar
    29   16   17 ar
    30   17   18 ar
    31   18   19 ar
    32   19   20 ar
    33   19   33 1
    34   20   21 ar
    35   20   34 1
    36   21   35 1
@<TRIPOS>MOLECULE
ZINC41037924
   39    40     0     0     0
SMALL
USER_CHARGES

@<TRIPOS>ATOM
      1 C1         -0.0184    1.5028    0.0103 C.3       1 <0>        -0.0834
      2 C2          0.0021   -0.0041    0.0020 C.2       1 <0>         0.1258
      3 C3          0.0060   -0.7217   -1.1737 C.2       1 <0>        -0.2360
      4 S1          0.0318   -2.3903   -0.5375 S.3       1 <0>         0.1182
      5 C4          0.0348   -2.0122    1.1026 C.2       1 <0>         0.0495
      6 N1          0.0225   -0.6986    1.1125 N.2       1 <0>        -0.5188
      7 C5          0.0533   -2.9548    2.2783 C.3       1 <0>        -0.0626
      8 C6         -0.0077   -0.2476   -2.5617 C.2       1 <0>         0.6101
      9 O1         -0.0255    0.9462   -2.7967 O.2       1 <0>        -0.4967
     10 N2         -0.0007   -1.1342   -3.5768 N.am      1 <0>        -0.6901
     11 C7         -0.0143   -0.6606   -4.9631 C.3       1 <0>         0.1170
     12 C8         -1.2765    0.1694   -5.2060 C.3       1 <0>        -0.1149
     13 C9         -2.5125   -0.6953   -4.9502 C.3       1 <0>        -0.1148
     14 C10        -2.5008   -1.8953   -5.8992 C.3       1 <0>        -0.1157
     15 C11        -1.2387   -2.7253   -5.6563 C.3       1 <0>        -0.1135
     16 C12        -0.0026   -1.8607   -5.9121 C.3       1 <0>        -0.0793
     17 H1         -0.0128   -1.5084   -6.9435 H         1 <0>         0.0873
     18 C13         1.2595   -2.6907   -5.6691 C.3       1 <0>        -0.1416
     19 C14         1.2032    0.1910   -5.2150 C.2       1 <0>         0.5056
     20 O2          2.0077    0.3845   -4.3196 O.co2     1 <0>        -0.6744
     21 O3          1.3836    0.6865   -6.3143 O.co2     1 <0>        -0.6993
     22 H2          1.0042    1.8801    0.0026 H         1 <0>         0.0789
     23 H3         -0.5455    1.8639   -0.8728 H         1 <0>         0.0964
     24 H4         -0.5286    1.8543    0.9071 H         1 <0>         0.0673
     25 H5          1.0854   -3.1682    2.5566 H         1 <0>         0.0889
     26 H6         -0.4626   -2.4948    3.1210 H         1 <0>         0.0908
     27 H7         -0.4493   -3.8833    2.0075 H         1 <0>         0.0847
     28 H8          0.0135   -2.0858   -3.3895 H         1 <0>         0.3818
     29 H9         -1.2849    1.0243   -4.5299 H         1 <0>         0.0769
     30 H10        -1.2867    0.5217   -6.2375 H         1 <0>         0.0705
     31 H11        -2.5024   -1.0476   -3.9188 H         1 <0>         0.0535
     32 H12        -3.4117   -0.1040   -5.1233 H         1 <0>         0.0533
     33 H13        -3.3814   -2.5113   -5.7170 H         1 <0>         0.0533
     34 H14        -2.5110   -1.5430   -6.9307 H         1 <0>         0.0611
     35 H15        -1.2285   -3.0777   -4.6248 H         1 <0>         0.0539
     36 H16        -1.2303   -3.5803   -6.3324 H         1 <0>         0.0587
     37 H17         1.2697   -3.0430   -4.6377 H         1 <0>         0.0449
     38 H18         1.2679   -3.5456   -6.3452 H         1 <0>         0.0481
     39 H19         2.1402   -2.0747   -5.8513 H         1 <0>         0.0644
@<TRIPOS>BOND
     1    1    2 1
     2    1   22 1
     3    1   23 1
     4    1   24 1
     5    2    6 1
     6    2    3 2
     7    3    4 1
     8    3    8 1
     9    4    5 1
    10    5    6 2
    11    5    7 1
    12    7   25 1
    13    7   26 1
    14    7   27 1
    15    8    9 2
    16    8   10 am
    17   10   11 1
    18   10   28 1
    19   11   16 1
    20   11   12 1
    21   11   19 1
    22   12   13 1
    23   12   29 1
    24   12   30 1
    25   13   14 1
    26   13   31 1
    27   13   32 1
    28   14   15 1
    29   14   33 1
    30   14   34 1
    31   15   16 1
    32   15   35 1
    33   15   36 1
    34   16   17 1
    35   16   18 1
    36   18   37 1
    37   18   38 1
    38   18   39 1
    39   19   20 2
    40   19   21 1
@<TRIPOS>MOLECULE
ZINC43511281
   33    34     0     0     0
SMALL
USER_CHARGES

@<TRIPOS>ATOM
      1 C1          1.2080   -0.1105   -4.8320 C.3       1 <0>        -0.1159
      2 C2          1.2035   -1.5115   -4.2767 C.ar      1 <0>        -0.0215
      3 C3          2.2073   -2.3962   -4.6252 C.ar      1 <0>        -0.1379
      4 C4          2.2039   -3.6813   -4.1164 C.ar      1 <0>         0.0346
      5 C5          1.1966   -4.0829   -3.2590 C.ar      1 <0>        -0.6635
      6 C6          0.1921   -3.1982   -2.9101 C.ar      1 <0>         0.0967
      7 C7          0.1994   -1.9099   -3.4150 C.ar      1 <0>        -0.1347
      8 Cl1        -1.0732   -3.7018   -1.8335 Cl        1 <0>        -0.0608
      9 S1          1.1918   -5.7216   -2.6114 S.o2      1 <0>         2.6940
     10 O1         -0.1187   -6.2334   -2.8111 O.2       1 <0>        -0.9661
     11 O2          2.3482   -6.3658   -3.1280 O.2       1 <0>        -0.9575
     12 N1          1.4086   -5.6015   -0.9740 N.pl3     1 <0>        -1.0868
     13 C8          2.6745   -5.0955   -0.4379 C.3       1 <0>         0.0986
     14 C9          2.5471   -4.9668    1.0793 C.3       1 <0>        -0.0990
     15 C10         2.9886   -6.2868    1.7711 C.3       1 <0>        -0.0618
     16 S2          4.4362   -6.7211    0.7099 S.3       1 <0>        -0.3436
     17 C11         3.8105   -6.0380   -0.8812 C.3       1 <0>        -0.0621
     18 C12         2.9293   -3.7271   -1.0155 C.2       1 <0>         0.4867
     19 O3          2.1940   -2.7978   -0.7286 O.co2     1 <0>        -0.6584
     20 O4          3.8706   -3.5493   -1.7697 O.co2     1 <0>        -0.6655
     21 H1          1.7709    0.5428   -4.1653 H         1 <0>         0.0780
     22 H2          1.6733   -0.1118   -5.8176 H         1 <0>         0.0693
     23 H3          0.1829    0.2509   -4.9146 H         1 <0>         0.0673
     24 H4          2.9941   -2.0831   -5.2955 H         1 <0>         0.1288
     25 H5          2.9882   -4.3720   -4.3889 H         1 <0>         0.1438
     26 H6         -0.5822   -1.2173   -3.1394 H         1 <0>         0.1306
     27 H7          0.6973   -5.8663   -0.3700 H         1 <0>         0.4098
     28 H8          3.1789   -4.1491    1.4262 H         1 <0>         0.0863
     29 H9          1.5098   -4.7539    1.3374 H         1 <0>         0.0839
     30 H10         3.2909   -6.1124    2.8037 H         1 <0>         0.1017
     31 H11         2.2095   -7.0468    1.7108 H         1 <0>         0.0848
     32 H12         3.4235   -6.8348   -1.5163 H         1 <0>         0.1099
     33 H13         4.5939   -5.4810   -1.3954 H         1 <0>         0.1308
@<TRIPOS>BOND
     1    1    2 1
     2    1   21 1
     3    1   22 1
     4    1   23 1
     5    2    7 ar
     6    2    3 ar
     7    3    4 ar
     8    3   24 1
     9    4    5 ar
    10    4   25 1
    11    5    6 ar
    12    5    9 1
    13    6    7 ar
    14    6    8 1
    15    7   26 1
    16    9   10 2
    17    9   11 2
    18    9   12 1
    19   12   13 1
    20   12   27 1
    21   13   17 1
    22   13   14 1
    23   13   18 1
    24   14   15 1
    25   14   28 1
    26   14   29 1
    27   15   16 1
    28   15   30 1
    29   15   31 1
    30   16   17 1
    31   17   32 1
    32   17   33 1
    33   18   19 2
    34   18   20 1
@<TRIPOS>MOLECULE
ZINC62663613
   29    30     0     0     0
SMALL
USER_CHARGES

@<TRIPOS>ATOM
      1 C1         -0.0184    1.5028    0.0103 C.3       1 <0>        -0.1242
      2 C2          0.0021   -0.0041    0.0020 C.2       1 <0>         0.1742
      3 C3         -1.1718   -0.6687    0.0042 C.2       1 <0>        -0.2457
      4 C4         -1.1861   -2.0834   -0.0035 C.2       1 <0>         0.4205
      5 O1         -2.2374   -2.7030   -0.0021 O.2       1 <0>        -0.4714
      6 C5          0.1093   -2.7835   -0.0136 C.ar      1 <0>        -0.1854
      7 C6          0.1827   -4.1774   -0.0220 C.ar      1 <0>        -0.0289
      8 C7          1.4147   -4.7935   -0.0319 C.ar      1 <0>         0.0181
      9 C8          2.5816   -4.0324   -0.0330 C.ar      1 <0>         0.1318
     10 C9          2.5217   -2.6542   -0.0243 C.ar      1 <0>        -0.1917
     11 C10         1.2866   -2.0146   -0.0152 C.ar      1 <0>         0.2219
     12 N1          1.1987   -0.6394   -0.0128 N.pl3     1 <0>        -0.6037
     13 H1          2.0136   -0.1132   -0.0181 H         1 <0>         0.4176
     14 F1          3.7831   -4.6499   -0.0422 F         1 <0>        -0.1224
     15 F2          1.4919   -6.1422   -0.0400 F         1 <0>        -0.1282
     16 C11        -2.4698    0.0968    0.0152 C.3       1 <0>        -0.0321
     17 C12        -2.9802    0.2559   -1.4183 C.3       1 <0>        -0.1731
     18 C13        -4.2783    1.0214   -1.4073 C.2       1 <0>         0.4910
     19 O2         -4.7512    1.4043   -0.3508 O.co2     1 <0>        -0.6984
     20 O3         -4.8555    1.2579   -2.4549 O.co2     1 <0>        -0.7075
     21 H2          1.0042    1.8801    0.0026 H         1 <0>         0.0677
     22 H3         -0.5455    1.8639   -0.8728 H         1 <0>         0.0986
     23 H4         -0.5286    1.8543    0.9071 H         1 <0>         0.0978
     24 H5         -0.7208   -4.7692   -0.0205 H         1 <0>         0.1620
     25 H6          3.4321   -2.0730   -0.0249 H         1 <0>         0.1541
     26 H7         -3.2074   -0.4471    0.6053 H         1 <0>         0.0767
     27 H8         -2.3074    1.0811    0.4544 H         1 <0>         0.0713
     28 H9         -2.2426    0.7998   -2.0084 H         1 <0>         0.0513
     29 H10        -3.1427   -0.7284   -1.8575 H         1 <0>         0.0581
@<TRIPOS>BOND
     1    1    2 1
     2    1   21 1
     3    1   22 1
     4    1   23 1
     5    2   12 1
     6    2    3 2
     7    3    4 1
     8    3   16 1
     9    4    5 2
    10    4    6 1
    11    6   11 ar
    12    6    7 ar
    13    7    8 ar
    14    7   24 1
    15    8    9 ar
    16    8   15 1
    17    9   10 ar
    18    9   14 1
    19   10   11 ar
    20   10   25 1
    21   11   12 1
    22   12   13 1
    23   16   17 1
    24   16   26 1
    25   16   27 1
    26   17   18 1
    27   17   28 1
    28   17   29 1
    29   18   19 2
    30   18   20 1
@<TRIPOS>MOLECULE
ZINC06312119
   25    25     0     0     0
SMALL
USER_CHARGES
2-[[4-amino-5-(trifluoromethyl)-1,2,4-triazol-3-yl]sulfanyl]-N-carbamoyl-acetamide
@<TRIPOS>ATOM
      1 C1         -2.9888    3.6578    5.0974 C.3       1 <0>        -0.1498
      2 C2         -3.6836    4.6500    5.9940 C.2       1 <0>         0.5405
      3 O1         -3.8442    5.7931    5.6234 O.2       1 <0>        -0.4487
      4 N1         -4.1264    4.2665    7.2078 N.am      1 <0>        -0.6836
      5 C3         -4.7478    5.1539    8.0097 C.2       1 <0>         0.6983
      6 O2         -4.9088    6.2998    7.6382 O.2       1 <0>        -0.5284
      7 N2         -5.1905    4.7704    9.2235 N.am      1 <0>        -0.8532
      8 S1         -2.5175    4.4699    3.5499 S.3       1 <0>         0.1048
      9 C4         -1.7490    3.1202    2.7178 C.2       1 <0>         0.1315
     10 N3         -1.6064    1.8988    3.1777 N.2       1 <0>        -0.2707
     11 N4         -1.0053    1.1712    2.3051 N.2       1 <0>        -0.2057
     12 C5         -0.7223    1.8808    1.2496 C.2       1 <0>         0.1172
     13 N5         -1.1890    3.1467    1.4728 N.pl3     1 <0>        -0.2775
     14 N6         -1.1109    4.2158    0.6262 N.3       1 <0>        -0.5811
     15 C6         -0.0169    1.3948    0.0097 C.3       1 <0>         0.5777
     16 F1          0.0021   -0.0041    0.0020 F         1 <0>        -0.1462
     17 F2          1.2956    1.8790   -0.0002 F         1 <0>        -0.1552
     18 F3         -0.6935    1.8582   -1.1237 F         1 <0>        -0.1596
     19 H1         -3.6627    2.8286    4.8820 H         1 <0>         0.1409
     20 H2         -2.0961    3.2804    5.5962 H         1 <0>         0.1413
     21 H3         -3.9978    3.3520    7.5043 H         1 <0>         0.4160
     22 H4         -5.0620    3.8558    9.5200 H         1 <0>         0.4021
     23 H5         -5.6378    5.4090    9.8006 H         1 <0>         0.4236
     24 H6         -1.9192    4.2599    0.0238 H         1 <0>         0.3791
     25 H7         -0.9957    5.0764    1.1402 H         1 <0>         0.3868
@<TRIPOS>BOND
     1    1    2 1
     2    1    8 1
     3    1   19 1
     4    1   20 1
     5    2    3 2
     6    2    4 am
     7    4    5 am
     8    4   21 1
     9    5    6 2
    10    5    7 am
    11    7   22 1
    12    7   23 1
    13    8    9 1
    14    9   13 1
    15    9   10 2
    16   10   11 1
    17   11   12 2
    18   12   13 1
    19   12   15 1
    20   13   14 1
    21   14   24 1
    22   14   25 1
    23   15   16 1
    24   15   17 1
    25   15   18 1
@<TRIPOS>MOLECULE
ZINC27874708
   41    42     0     0     0
SMALL
USER_CHARGES
(2R,3S,4S,5S,6S)-5-[[3-hydroxy-6-(hydroxymethyl)-2-pyridyl]sulfanyl]-6-(hydroxymethyl)-2-methoxy-tetrahydropyran-3,4-diol
@<TRIPOS>ATOM
      1 C1         -2.4497    1.5459   -3.3892 C.3       1 <0>         0.0274
      2 O1         -1.1218    2.0734   -3.4116 O.3       1 <0>        -0.3623
      3 C2         -0.2788    1.5699   -2.3733 C.3       1 <0>         0.2622
      4 H1         -0.3391    0.4719   -2.4007 H         1 <0>         0.0787
      5 C3          1.1434    2.1022   -2.5672 C.3       1 <0>         0.1167
      6 H2          1.5527    1.8090   -3.5452 H         1 <0>         0.0784
      7 C4          2.0266    1.6071   -1.4178 C.3       1 <0>         0.0919
      8 H3          3.0632    1.9592   -1.5252 H         1 <0>         0.0863
      9 C5          1.4140    2.0563   -0.0877 C.3       1 <0>        -0.1425
     10 H4          1.3042    3.1466   -0.1830 H         1 <0>         0.1306
     11 C6         -0.0187    1.5258    0.0104 C.3       1 <0>         0.1286
     12 H5         -0.5278    1.9121    0.9057 H         1 <0>         0.1177
     13 O2         -0.7776    1.9982   -1.1045 O.3       1 <0>        -0.3775
     14 C7          0.0021   -0.0041    0.0020 C.3       1 <0>         0.0355
     15 O3         -1.3159   -0.4997    0.2459 O.3       1 <0>        -0.5968
     16 S1          2.3988    1.4004    1.2873 S.3       1 <0>        -0.0046
     17 C8          3.9556    2.2085    1.1202 C.ar      1 <0>         0.0716
     18 C9          4.9790    1.9357    2.0303 C.ar      1 <0>         0.1328
     19 C10         6.1979    2.5799    1.8842 C.ar      1 <0>        -0.1589
     20 C11         6.3520    3.4749    0.8329 C.ar      1 <0>        -0.1045
     21 C12         5.2970    3.6955   -0.0284 C.ar      1 <0>         0.0911
     22 N1          4.1476    3.0651    0.1298 N.ar      1 <0>        -0.4478
     23 C13         5.4608    4.6657   -1.1699 C.3       1 <0>         0.1436
     24 O4          6.7793    5.2159   -1.1420 O.3       1 <0>        -0.6010
     25 O5          4.7827    1.0518    3.0452 O.3       1 <0>        -0.4930
     26 O6          2.1027    0.1805   -1.4514 O.3       1 <0>        -0.5910
     27 O7          1.1220    3.5310   -2.5716 O.3       1 <0>        -0.5631
     28 H6         -3.0310    1.9810   -4.2155 H         1 <0>         0.0897
     29 H7         -2.9283    1.7982   -2.4315 H         1 <0>         0.0551
     30 H8         -2.4118    0.4525   -3.5034 H         1 <0>         0.0416
     31 H9          0.3524   -0.3606   -0.9779 H         1 <0>         0.0895
     32 H10         0.6812   -0.3659    0.7881 H         1 <0>         0.0551
     33 H11        -1.4988   -1.5839    0.2767 H         1 <0>         0.4085
     34 H12         7.0088    2.3905    2.5720 H         1 <0>         0.1464
     35 H13         7.2890    3.9929    0.6910 H         1 <0>         0.1496
     36 H14         5.3029    4.1402   -2.1233 H         1 <0>         0.0638
     37 H15         4.7233    5.4758   -1.0713 H         1 <0>         0.0669
     38 H16         7.0858    5.9485   -1.9032 H         1 <0>         0.4237
     39 H17         5.5945    0.8430    3.7575 H         1 <0>         0.4409
     40 H18         2.6970   -0.3565   -0.6975 H         1 <0>         0.4138
     41 H19         2.0578    4.0947   -2.7003 H         1 <0>         0.4054
@<TRIPOS>BOND
     1    1    2 1
     2    1   28 1
     3    1   29 1
     4    1   30 1
     5    2    3 1
     6    3    4 1
     7    3   13 1
     8    3    5 1
     9    5    6 1
    10    5    7 1
    11    5   27 1
    12    7    8 1
    13    7    9 1
    14    7   26 1
    15    9   10 1
    16    9   11 1
    17    9   16 1
    18   11   12 1
    19   11   13 1
    20   11   14 1
    21   14   15 1
    22   14   31 1
    23   14   32 1
    24   15   33 1
    25   16   17 1
    26   17   22 ar
    27   17   18 ar
    28   18   19 ar
    29   18   25 1
    30   19   20 ar
    31   19   34 1
    32   20   21 ar
    33   20   35 1
    34   21   22 ar
    35   21   23 1
    36   23   24 1
    37   23   36 1
    38   23   37 1
    39   24   38 1
    40   25   39 1
    41   26   40 1
    42   27   41 1
@<TRIPOS>MOLECULE
ZINC37744397
   33    34     0     0     0
SMALL
USER_CHARGES

@<TRIPOS>ATOM
      1 C1         -0.0167    1.3786    0.0096 C.ar      1 <0>        -0.0565
      2 C2          1.1689    2.0869    0.0021 C.ar      1 <0>        -0.1977
      3 C3          2.3811    1.4088   -0.0131 C.ar      1 <0>         0.2209
      4 C4          2.3964    0.0198   -0.0206 C.ar      1 <0>        -0.1953
      5 C5          1.2071   -0.6823   -0.0130 C.ar      1 <0>        -0.0579
      6 C6          0.0021   -0.0041    0.0020 C.ar      1 <0>        -0.1830
      7 C7         -1.2936   -0.7736    0.0107 C.3       1 <0>         0.1539
      8 H1         -2.0858   -0.1560   -0.4125 H         1 <0>         0.1123
      9 C8         -1.6537   -1.1498    1.4493 C.3       1 <0>         0.0886
     10 N1         -2.9133   -1.8978    1.4578 N.pl3     1 <0>        -1.1117
     11 S1         -3.3615   -2.7496    2.8054 S.o2      1 <0>         2.7289
     12 O1         -4.6232   -3.3351    2.5148 O.2       1 <0>        -0.9566
     13 O2         -2.2334   -3.5230    3.1908 O.2       1 <0>        -0.9622
     14 C9         -3.6341   -1.5796    4.0944 C.2       1 <0>        -0.8191
     15 C10        -2.7061   -1.1295    4.9704 C.2       1 <0>         0.1838
     16 N2         -3.3113   -0.2484    5.7941 N.pl3     1 <0>        -0.4603
     17 H2         -2.8898    0.2345    6.5221 H         1 <0>         0.4458
     18 N3         -4.6556   -0.1538    5.4116 N.2       1 <0>        -0.2868
     19 C11        -4.8465   -0.9475    4.3892 C.2       1 <0>         0.1372
     20 O3         -1.1474   -1.9615   -0.7699 O.3       1 <0>        -0.5492
     21 N4          3.5820    2.1220   -0.0212 N.pl3     1 <0>        -0.8775
     22 H3         -0.9595    1.9052    0.0260 H         1 <0>         0.1233
     23 H4          1.1535    3.1668    0.0077 H         1 <0>         0.1214
     24 H5          3.3371   -0.5105   -0.0328 H         1 <0>         0.1222
     25 H6          1.2182   -1.7622   -0.0189 H         1 <0>         0.1221
     26 H7         -0.8615   -1.7674    1.8725 H         1 <0>         0.0847
     27 H8         -1.7653   -0.2436    2.0448 H         1 <0>         0.0739
     28 H9         -3.4848   -1.8942    0.6740 H         1 <0>         0.4230
     29 H10        -1.6673   -1.4229    5.0043 H         1 <0>         0.1961
     30 H11        -5.7798   -1.0920    3.8652 H         1 <0>         0.2005
     31 H12        -0.4581   -2.5598   -0.4504 H         1 <0>         0.3766
     32 H13         3.5702    3.0919   -0.0162 H         1 <0>         0.3992
     33 H14         4.4279    1.6474   -0.0318 H         1 <0>         0.3995
@<TRIPOS>BOND
     1    1    6 ar
     2    1    2 ar
     3    1   22 1
     4    2    3 ar
     5    2   23 1
     6    3    4 ar
     7    3   21 1
     8    4    5 ar
     9    4   24 1
    10    5    6 ar
    11    5   25 1
    12    6    7 1
    13    7    8 1
    14    7    9 1
    15    7   20 1
    16    9   10 1
    17    9   26 1
    18    9   27 1
    19   10   11 1
    20   10   28 1
    21   11   12 2
    22   11   13 2
    23   11   14 1
    24   14   19 1
    25   14   15 2
    26   15   16 1
    27   15   29 1
    28   16   17 1
    29   16   18 1
    30   18   19 2
    31   19   30 1
    32   20   31 1
    33   21   32 1
    34   21   33 1
@<TRIPOS>MOLECULE
ZINC42192742
   31    32     0     0     0
SMALL
USER_CHARGES

@<TRIPOS>ATOM
      1 C1         -0.0168    1.3893    0.0097 C.ar      1 <0>        -0.1875
      2 C2          1.1489    2.1002    0.0024 C.ar      1 <0>         0.0046
      3 C3          2.3753    1.4305   -0.0129 C.ar      1 <0>        -0.0245
      4 C4          2.3985    0.0253   -0.0206 C.ar      1 <0>         0.1376
      5 C5          1.2075   -0.6864   -0.0131 C.ar      1 <0>        -0.2266
      6 C6          0.0021   -0.0041    0.0020 C.ar      1 <0>         0.2622
      7 N1         -1.2009   -0.7165    0.0096 N.pl3     1 <0>        -0.8662
      8 N2          3.7315   -0.3339   -0.0352 N.pl3     1 <0>        -0.5558
      9 H1          4.0834   -1.2378   -0.0434 H         1 <0>         0.4330
     10 C7          4.4607    0.8162   -0.0360 C.2       1 <0>        -0.2913
     11 N3          3.6685    1.8476   -0.0230 N.2       1 <0>        -0.3652
     12 S1          6.2208    0.8954   -0.0515 S.o2      1 <0>         2.5628
     13 O1          6.5330    2.1421    0.5548 O.2       1 <0>        -0.8727
     14 O2          6.6439   -0.3247    0.5415 O.2       1 <0>        -0.8993
     15 C8          6.6707    0.9251   -1.8086 C.3       1 <0>        -0.6569
     16 C9          8.1703    0.9933   -1.9421 C.2       1 <0>         0.5526
     17 O3          8.8666    1.0193   -0.9500 O.2       1 <0>        -0.4534
     18 N4          8.7372    1.0254   -3.1643 N.am      1 <0>        -0.6800
     19 C10        10.0783    1.0864   -3.2837 C.2       1 <0>         0.6954
     20 O4         10.7764    1.1124   -2.2892 O.2       1 <0>        -0.5230
     21 N5         10.6453    1.1185   -4.5060 N.am      1 <0>        -0.8528
     22 H2         -0.9620    1.9116    0.0260 H         1 <0>         0.1371
     23 H3          1.1232    3.1799    0.0080 H         1 <0>         0.1405
     24 H4          1.2202   -1.7663   -0.0193 H         1 <0>         0.1285
     25 H5         -2.0462   -0.2409    0.0202 H         1 <0>         0.4045
     26 H6         -1.1902   -1.6865    0.0043 H         1 <0>         0.4025
     27 H7          6.3036    0.0204   -2.2930 H         1 <0>         0.1726
     28 H8          6.2236    1.7985   -2.2834 H         1 <0>         0.1796
     29 H9          8.1801    1.0046   -3.9581 H         1 <0>         0.4163
     30 H10        10.0882    1.0977   -5.2998 H         1 <0>         0.4015
     31 H11        11.6105    1.1623   -4.5919 H         1 <0>         0.4242
@<TRIPOS>BOND
     1    1    6 ar
     2    1    2 ar
     3    1   22 1
     4    2    3 ar
     5    2   23 1
     6    3   11 1
     7    3    4 ar
     8    4    5 ar
     9    4    8 1
    10    5    6 ar
    11    5   24 1
    12    6    7 1
    13    7   25 1
    14    7   26 1
    15    8    9 1
    16    8   10 1
    17   10   11 2
    18   10   12 1
    19   12   13 2
    20   12   14 2
    21   12   15 1
    22   15   16 1
    23   15   27 1
    24   15   28 1
    25   16   17 2
    26   16   18 am
    27   18   19 am
    28   18   29 1
    29   19   20 2
    30   19   21 am
    31   21   30 1
    32   21   31 1
@<TRIPOS>MOLECULE
ZINC53736898
   35    36     0     0     0
SMALL
USER_CHARGES

@<TRIPOS>ATOM
      1 C1         -0.0168    1.3892    0.0097 C.ar      1 <0>        -0.1586
      2 C2          1.1621    2.1024    0.0023 C.ar      1 <0>        -0.0665
      3 C3          2.3770    1.4317   -0.0129 C.ar      1 <0>         0.0038
      4 C4          2.4053    0.0269   -0.0207 C.ar      1 <0>         0.0951
      5 C5          1.2041   -0.6865   -0.0134 C.ar      1 <0>        -0.1567
      6 C6          0.0021   -0.0041    0.0020 C.ar      1 <0>         0.2093
      7 N1         -1.2023   -0.7163    0.0101 N.pl3     1 <0>        -0.8786
      8 N2          3.7119   -0.3428   -0.0351 N.2       1 <0>        -0.4798
      9 C7          4.4670    0.7169   -0.0366 C.2       1 <0>         0.2846
     10 N3          3.6987    1.8388   -0.0233 N.pl3     1 <0>        -0.4822
     11 C8          4.1813    3.2221   -0.0210 C.3       1 <0>         0.1199
     12 C9          4.3629    3.6964    1.4223 C.3       1 <0>        -0.1318
     13 C10         4.8670    5.1410    1.4247 C.3       1 <0>        -0.6248
     14 S1          5.0824    5.7033    3.1359 S.o2      1 <0>         2.6168
     15 O1          3.8194    5.8111    3.7782 O.2       1 <0>        -0.9576
     16 O2          6.1507    4.9977    3.7522 O.2       1 <0>        -0.9585
     17 N4          5.6250    7.2625    3.0063 N.pl3     1 <0>        -1.2506
     18 C11         5.9739    0.7029   -0.0506 C.3       1 <0>         0.1531
     19 O3          6.4378    0.7060   -1.4022 O.3       1 <0>        -0.5630
     20 H1         -0.9611    1.9132    0.0260 H         1 <0>         0.1307
     21 H2          1.1408    3.1822    0.0079 H         1 <0>         0.1234
     22 H3          1.2147   -1.7665   -0.0196 H         1 <0>         0.1278
     23 H4         -2.0473   -0.2401    0.0210 H         1 <0>         0.3989
     24 H5         -1.1923   -1.6862    0.0048 H         1 <0>         0.3994
     25 H6          5.1364    3.2745   -0.5436 H         1 <0>         0.1008
     26 H7          3.4559    3.8609   -0.5248 H         1 <0>         0.0975
     27 H8          3.4078    3.6440    1.9449 H         1 <0>         0.0919
     28 H9          5.0883    3.0576    1.9261 H         1 <0>         0.0893
     29 H10         5.8221    5.1934    0.9021 H         1 <0>         0.1411
     30 H11         4.1416    5.7798    0.9209 H         1 <0>         0.1412
     31 H12         5.7539    7.6600    2.1309 H         1 <0>         0.4134
     32 H13         5.8139    7.7783    3.8058 H         1 <0>         0.4228
     33 H14         6.3502    1.5866    0.4647 H         1 <0>         0.0684
     34 H15         6.3336   -0.1933    0.4550 H         1 <0>         0.0884
     35 H16         7.4009    0.6974   -1.4875 H         1 <0>         0.3914
@<TRIPOS>BOND
     1    1    6 ar
     2    1    2 ar
     3    1   20 1
     4    2    3 ar
     5    2   21 1
     6    3   10 1
     7    3    4 ar
     8    4    5 ar
     9    4    8 1
    10    5    6 ar
    11    5   22 1
    12    6    7 1
    13    7   23 1
    14    7   24 1
    15    8    9 2
    16    9   10 1
    17    9   18 1
    18   10   11 1
    19   11   12 1
    20   11   25 1
    21   11   26 1
    22   12   13 1
    23   12   27 1
    24   12   28 1
    25   13   14 1
    26   13   29 1
    27   13   30 1
    28   14   15 2
    29   14   16 2
    30   14   17 1
    31   17   31 1
    32   17   32 1
    33   18   19 1
    34   18   33 1
    35   18   34 1
    36   19   35 1
@<TRIPOS>MOLECULE
ZINC05412519
   35    35     0     0     0
SMALL
USER_CHARGES
1-(2-iodoethyl)-3-[2,4,5-trihydroxy-6-(hydroxymethyl)tetrahydropyran-3-yl]-urea
@<TRIPOS>ATOM
      1 C1         -2.9943    6.6715   -3.6787 C.3       1 <0>         0.1443
      2 C2         -3.5909    6.9372   -5.0623 C.3       1 <0>        -0.1066
      3 I1         -4.4238    8.9315   -5.1172 I         1 <0>        -0.1174
      4 N1         -2.4299    5.3201   -3.6416 N.am      1 <0>        -0.7489
      5 C3         -1.8465    4.8642   -2.5154 C.2       1 <0>         0.7067
      6 O1         -1.7886    5.5745   -1.5303 O.2       1 <0>        -0.5607
      7 N2         -1.3273    3.6209   -2.4813 N.am      1 <0>        -0.7328
      8 C4         -0.6931    3.1254   -1.2571 C.3       1 <0>         0.1641
      9 H1         -1.2192    3.5199   -0.3878 H         1 <0>         0.1227
     10 C5         -0.7465    1.5946   -1.2366 C.3       1 <0>         0.1060
     11 H2         -1.7855    1.2664   -1.2070 H         1 <0>         0.0880
     12 C6         -0.0127    1.0858    0.0080 C.3       1 <0>         0.0492
     13 H3          0.0021   -0.0041    0.0020 H         1 <0>         0.0797
     14 C7          1.4231    1.6170   -0.0028 C.3       1 <0>         0.0717
     15 H4          1.9471    1.2302   -0.8768 H         1 <0>         0.0825
     16 O2          1.4009    3.0450   -0.0534 O.3       1 <0>        -0.3855
     17 C8          0.7689    3.5778   -1.2191 C.3       1 <0>         0.2615
     18 H5          1.2845    3.2170   -2.1091 H         1 <0>         0.0571
     19 O3          0.8253    5.0052   -1.1815 O.3       1 <0>        -0.5187
     20 C9          2.1448    1.1626    1.2674 C.3       1 <0>         0.0784
     21 O4          3.5164    1.5587    1.2035 O.3       1 <0>        -0.5613
     22 O5         -0.6839    1.5478    1.1819 O.3       1 <0>        -0.5451
     23 O6         -0.1136    1.0784   -2.4091 O.3       1 <0>        -0.5537
     24 H6         -3.7750    6.7601   -2.9233 H         1 <0>         0.0763
     25 H7         -2.2084    7.3992   -3.4761 H         1 <0>         0.0773
     26 H8         -2.8102    6.8486   -5.8178 H         1 <0>         0.1039
     27 H9         -4.3768    6.2095   -5.2650 H         1 <0>         0.1037
     28 H10        -2.4761    4.7534   -4.4275 H         1 <0>         0.3952
     29 H11        -1.3735    3.0543   -3.2672 H         1 <0>         0.4003
     30 H12         1.7233    5.3628   -1.1552 H         1 <0>         0.3810
     31 H13         1.6742    1.6217    2.1367 H         1 <0>         0.0593
     32 H14         2.0836    0.0776    1.3517 H         1 <0>         0.0643
     33 H15         4.0361    1.3028    1.9778 H         1 <0>         0.3845
     34 H16        -0.2706    1.2640    2.0087 H         1 <0>         0.3847
     35 H17        -0.1049    0.1128   -2.4587 H         1 <0>         0.3883
@<TRIPOS>BOND
     1    1    2 1
     2    1    4 1
     3    1   24 1
     4    1   25 1
     5    2    3 1
     6    2   26 1
     7    2   27 1
     8    4    5 am
     9    4   28 1
    10    5    6 2
    11    5    7 am
    12    7    8 1
    13    7   29 1
    14    8    9 1
    15    8   17 1
    16    8   10 1
    17   10   11 1
    18   10   12 1
    19   10   23 1
    20   12   13 1
    21   12   14 1
    22   12   22 1
    23   14   15 1
    24   14   16 1
    25   14   20 1
    26   16   17 1
    27   17   18 1
    28   17   19 1
    29   19   30 1
    30   20   21 1
    31   20   31 1
    32   20   32 1
    33   21   33 1
    34   22   34 1
    35   23   35 1
@<TRIPOS>MOLECULE
ZINC04864451
   41    42     0     0     0
SMALL
USER_CHARGES
2-chloro-3-[[(2S,3R,4R,5R)-2,3,4,5,6-pentahydroxyhexylidene]amino]naphthalene-1,4-dione
@<TRIPOS>ATOM
      1 C1        -10.7153   -0.5105   -3.0671 C.ar      1 <0>        -0.0958
      2 C2        -10.7542   -1.8789   -3.2549 C.ar      1 <0>        -0.0910
      3 C3         -9.5840   -2.5939   -3.4562 C.ar      1 <0>        -0.0616
      4 C4         -8.3628   -1.9310   -3.4697 C.ar      1 <0>        -0.1148
      5 C5         -8.3232   -0.5383   -3.2790 C.ar      1 <0>        -0.1275
      6 C6         -9.5054    0.1652   -3.0783 C.ar      1 <0>        -0.0596
      7 C7         -7.0207    0.1609   -3.2940 C.2       1 <0>         0.4174
      8 O1         -6.9713    1.3632   -3.1303 O.2       1 <0>        -0.4122
      9 C8         -5.7749   -0.6135   -3.5095 C.2       1 <0>         0.0613
     10 C9         -5.8212   -1.9580   -3.6986 C.2       1 <0>        -0.0803
     11 C10        -7.1015   -2.6750   -3.6823 C.2       1 <0>         0.4307
     12 O2         -7.1263   -3.8793   -3.8481 O.2       1 <0>        -0.4003
     13 Cl1        -4.3478   -2.8392   -3.9564 Cl        1 <0>        -0.0023
     14 N1         -4.5724    0.0302   -3.5236 N.2       1 <0>        -0.4612
     15 C11        -4.2750    0.8672   -2.5814 C.2       1 <0>         0.1765
     16 C12        -2.9065    1.4968   -2.5370 C.3       1 <0>         0.1247
     17 H1         -2.9946    2.4908   -2.6020 H         1 <0>         0.1217
     18 C13        -2.2193    1.1308   -1.2200 C.3       1 <0>         0.0515
     19 H2         -2.7676    1.5739   -0.3886 H         1 <0>         0.1285
     20 C14        -0.7854    1.6646   -1.2274 C.3       1 <0>         0.0547
     21 H3         -0.8035    2.7542   -1.2502 H         1 <0>         0.1140
     22 C15        -0.0590    1.1928    0.0338 C.3       1 <0>         0.0836
     23 H4         -0.0410    0.1032    0.0566 H         1 <0>         0.1125
     24 C16         1.3748    1.7266    0.0264 C.3       1 <0>         0.0450
     25 O3          2.0880    1.1918    1.1433 O.3       1 <0>        -0.5656
     26 O4         -0.7435    1.6821    1.1889 O.3       1 <0>        -0.5420
     27 O5         -0.1010    1.1753   -2.3825 O.3       1 <0>        -0.5283
     28 O6         -2.1977   -0.2904   -1.0728 O.3       1 <0>        -0.5405
     29 O7         -2.1249    1.0152   -3.6321 O.3       1 <0>        -0.5163
     30 H5        -11.6337    0.0359   -2.9109 H         1 <0>         0.1429
     31 H6        -11.7029   -2.3949   -3.2446 H         1 <0>         0.1435
     32 H7         -9.6211   -3.6634   -3.6017 H         1 <0>         0.1486
     33 H8         -9.4809    1.2349   -2.9314 H         1 <0>         0.1461
     34 H9         -5.0077    1.1141   -1.8273 H         1 <0>         0.1155
     35 H10         1.8692    1.4270   -0.8977 H         1 <0>         0.0640
     36 H11         1.3579    2.8144    0.0932 H         1 <0>         0.0483
     37 H12         3.0065    1.4883    1.2020 H         1 <0>         0.3817
     38 H13        -0.7978    2.6465    1.2348 H         1 <0>         0.3730
     39 H14        -0.0467    0.2109   -2.4283 H         1 <0>         0.3704
     40 H15        -1.7251   -0.7519   -1.7791 H         1 <0>         0.3698
     41 H16        -1.9981    0.0565   -3.6332 H         1 <0>         0.3735
@<TRIPOS>BOND
     1    1    6 ar
     2    1    2 ar
     3    1   30 1
     4    2    3 ar
     5    2   31 1
     6    3    4 ar
     7    3   32 1
     8    4   11 1
     9    4    5 ar
    10    5    6 ar
    11    5    7 1
    12    6   33 1
    13    7    8 2
    14    7    9 1
    15    9   10 2
    16    9   14 1
    17   10   11 1
    18   10   13 1
    19   11   12 2
    20   14   15 2
    21   15   16 1
    22   15   34 1
    23   16   17 1
    24   16   18 1
    25   16   29 1
    26   18   19 1
    27   18   20 1
    28   18   28 1
    29   20   21 1
    30   20   22 1
    31   20   27 1
    32   22   23 1
    33   22   24 1
    34   22   26 1
    35   24   25 1
    36   24   35 1
    37   24   36 1
    38   25   37 1
    39   26   38 1
    40   27   39 1
    41   28   40 1
    42   29   41 1
@<TRIPOS>MOLECULE
ZINC38653569
   34    36     0     0     0
SMALL
USER_CHARGES

@<TRIPOS>ATOM
      1 C1         -0.0158    1.3119    0.0093 C.ar      1 <0>         0.3701
      2 N1          1.0888    2.0360    0.0026 N.ar      1 <0>        -0.5679
      3 C2          2.2875    1.4625   -0.0119 C.ar      1 <0>         0.5323
      4 C3          2.3582    0.0588   -0.0202 C.ar      1 <0>        -0.1022
      5 C4          1.1547   -0.6659   -0.0126 C.ar      1 <0>         0.3336
      6 N2          0.0021   -0.0041    0.0020 N.ar      1 <0>        -0.5495
      7 N3          1.5110   -1.9908   -0.0227 N.pl3     1 <0>        -0.3374
      8 C5          2.8729   -2.0476   -0.0358 C.2       1 <0>         0.2370
      9 N4          3.3680   -0.8441   -0.0343 N.2       1 <0>        -0.4428
     10 O1          0.6262   -3.0964   -0.0196 O.3       1 <0>        -0.1151
     11 C6          1.2823   -4.3658   -0.0324 C.3       1 <0>         0.0361
     12 C7          0.2350   -5.4812   -0.0278 C.3       1 <0>         0.1026
     13 H1         -0.4671   -5.3449   -0.8503 H         1 <0>         0.1059
     14 C8          0.9197   -6.8623   -0.1285 C.3       1 <0>         0.0884
     15 H2          0.8992   -7.2247   -1.1563 H         1 <0>         0.0989
     16 C9          0.0664   -7.7719    0.7834 C.3       1 <0>         0.0591
     17 H3          0.6696   -8.1672    1.6007 H         1 <0>         0.0962
     18 C10        -1.0330   -6.8328    1.3273 C.3       1 <0>         0.2091
     19 H4         -1.2610   -7.0764    2.3650 H         1 <0>         0.1097
     20 O2         -0.4674   -5.5061    1.2339 O.3       1 <0>        -0.3681
     21 O3         -2.2112   -6.9287    0.5244 O.3       1 <0>        -0.5571
     22 O4         -0.5111   -8.8384    0.0277 O.3       1 <0>        -0.5405
     23 O5          2.2647   -6.7903    0.3489 O.3       1 <0>        -0.5525
     24 N5          3.4393    2.2295   -0.0193 N.pl3     1 <0>        -0.5612
     25 O6          3.3489    3.6426   -0.0113 O.3       1 <0>        -0.3039
     26 H5         -0.9693    1.8187    0.0257 H         1 <0>         0.2105
     27 H6          3.4551   -2.9572   -0.0459 H         1 <0>         0.2285
     28 H7          1.8969   -4.4482   -0.9288 H         1 <0>         0.0918
     29 H8          1.9142   -4.4571    0.8511 H         1 <0>         0.0938
     30 H9         -2.9357   -6.3603    0.8194 H         1 <0>         0.3907
     31 H10        -1.0574   -9.4405    0.5511 H         1 <0>         0.3895
     32 H11         2.7419   -7.6304    0.3084 H         1 <0>         0.3915
     33 H12         4.3085    1.7992   -0.0299 H         1 <0>         0.4316
     34 H13         4.2054    4.0915   -0.0173 H         1 <0>         0.3914
@<TRIPOS>BOND
     1    1    6 ar
     2    1    2 ar
     3    1   26 1
     4    2    3 ar
     5    3    4 ar
     6    3   24 1
     7    4    9 1
     8    4    5 ar
     9    5    6 ar
    10    5    7 1
    11    7    8 1
    12    7   10 1
    13    8    9 2
    14    8   27 1
    15   10   11 1
    16   11   12 1
    17   11   28 1
    18   11   29 1
    19   12   13 1
    20   12   20 1
    21   12   14 1
    22   14   15 1
    23   14   16 1
    24   14   23 1
    25   16   17 1
    26   16   18 1
    27   16   22 1
    28   18   19 1
    29   18   20 1
    30   18   21 1
    31   21   30 1
    32   22   31 1
    33   23   32 1
    34   24   25 1
    35   24   33 1
    36   25   34 1
@<TRIPOS>MOLECULE
ZINC43465401
   44    46     0     0     0
SMALL
USER_CHARGES

@<TRIPOS>ATOM
      1 C1          0.0797    1.4710    0.0668 C.3       1 <0>         0.0216
      2 O1          0.0851    0.0423    0.0374 O.3       1 <0>        -0.2954
      3 C2          0.6827   -0.5946    1.0802 C.ar      1 <0>         0.1003
      4 C3          1.2421    0.1402    2.1045 C.ar      1 <0>        -0.1449
      5 C4          1.8559   -0.5188    3.1765 C.ar      1 <0>        -0.1199
      6 C5          2.4577    0.2352    4.2783 C.2       1 <0>        -0.0002
      7 C6          3.0383   -0.4602    5.2906 C.2       1 <0>        -0.2394
      8 C7          3.0481   -1.8697    5.2578 C.2       1 <0>         0.5048
      9 O2          3.5719   -2.4811    6.1718 O.2       1 <0>        -0.4608
     10 O3          2.4946   -2.5549    4.2456 O.3       1 <0>        -0.2630
     11 C8          1.9013   -1.9242    3.2076 C.ar      1 <0>         0.1017
     12 C9          1.3333   -2.6520    2.1674 C.ar      1 <0>         0.0915
     13 C10         0.7224   -1.9899    1.1126 C.ar      1 <0>         0.1419
     14 O4          0.1633   -2.7045    0.1004 O.3       1 <0>        -0.4435
     15 O5          1.3714   -4.0122    2.1873 O.3       1 <0>        -0.3056
     16 C11         0.3585   -4.6786    2.9435 C.3       1 <0>         0.2242
     17 H1          0.2269   -4.1727    3.9000 H         1 <0>         0.0996
     18 C12         0.7760   -6.1311    3.1874 C.3       1 <0>         0.0646
     19 H2          1.7365   -6.1525    3.7023 H         1 <0>         0.0757
     20 C13         0.9006   -6.8513    1.8413 C.3       1 <0>         0.0838
     21 H3          1.1430   -7.9005    2.0101 H         1 <0>         0.0718
     22 C14        -0.4323   -6.7473    1.0937 C.3       1 <0>         0.0865
     23 H4         -0.3360   -7.2093    0.1112 H         1 <0>         0.0723
     24 C15        -0.8032   -5.2709    0.9307 C.3       1 <0>         0.1111
     25 H5         -0.0457   -4.7703    0.3275 H         1 <0>         0.1063
     26 O6         -0.8723   -4.6533    2.2177 O.3       1 <0>        -0.3502
     27 C16        -2.1627   -5.1598    0.2376 C.3       1 <0>         0.0892
     28 O7         -2.4554   -3.7849   -0.0193 O.3       1 <0>        -0.5506
     29 O8         -1.4512   -7.4173    1.8386 O.3       1 <0>        -0.5293
     30 O9          1.9342   -6.2406    1.0663 O.3       1 <0>        -0.5367
     31 O10        -0.2105   -6.7832    3.9897 O.3       1 <0>        -0.5246
     32 H6          1.1060    1.8379    0.0848 H         1 <0>         0.0582
     33 H7         -0.4264    1.8507   -0.8208 H         1 <0>         0.1067
     34 H8         -0.4445    1.8141    0.9587 H         1 <0>         0.0588
     35 H9          1.2072    1.2194    2.0796 H         1 <0>         0.1518
     36 H10         2.4408    1.3150    4.2857 H         1 <0>         0.1573
     37 H11         3.4916    0.0652    6.1182 H         1 <0>         0.1674
     38 H12         0.7712   -2.8995   -0.6259 H         1 <0>         0.3903
     39 H13        -2.1362   -5.7078   -0.7043 H         1 <0>         0.0538
     40 H14        -2.9343   -5.5814    0.8817 H         1 <0>         0.0567
     41 H15        -3.3046   -3.6390   -0.4582 H         1 <0>         0.3728
     42 H16        -1.2785   -8.3577    1.9835 H         1 <0>         0.3762
     43 H17         2.8059   -6.2654    1.4842 H         1 <0>         0.3849
     44 H18        -0.3445   -6.3760    4.8565 H         1 <0>         0.3823
@<TRIPOS>BOND
     1    1    2 1
     2    1   32 1
     3    1   33 1
     4    1   34 1
     5    2    3 1
     6    3   13 ar
     7    3    4 ar
     8    4    5 ar
     9    4   35 1
    10    5   11 ar
    11    5    6 1
    12    6    7 2
    13    6   36 1
    14    7    8 1
    15    7   37 1
    16    8    9 2
    17    8   10 1
    18   10   11 1
    19   11   12 ar
    20   12   13 ar
    21   12   15 1
    22   13   14 1
    23   14   38 1
    24   15   16 1
    25   16   17 1
    26   16   26 1
    27   16   18 1
    28   18   19 1
    29   18   20 1
    30   18   31 1
    31   20   21 1
    32   20   22 1
    33   20   30 1
    34   22   23 1
    35   22   24 1
    36   22   29 1
    37   24   25 1
    38   24   26 1
    39   24   27 1
    40   27   28 1
    41   27   39 1
    42   27   40 1
    43   28   41 1
    44   29   42 1
    45   30   43 1
    46   31   44 1
@<TRIPOS>MOLECULE
ZINC60862081
   37    38     0     0     0
SMALL
USER_CHARGES

@<TRIPOS>ATOM
      1 C1         -0.3962    1.5822    0.2143 C.ar      1 <0>        -0.1332
      2 C2          0.6641    2.4691    0.2251 C.ar      1 <0>        -0.0175
      3 C3          1.9544    2.0058    0.0483 C.ar      1 <0>        -0.6754
      4 C4          2.1845    0.6556   -0.1389 C.ar      1 <0>        -0.0125
      5 C5          1.1243   -0.2313   -0.1487 C.ar      1 <0>        -0.1337
      6 C6         -0.1662    0.2321    0.0267 C.ar      1 <0>        -0.0291
      7 C7         -1.3221   -0.7348    0.0154 C.3       1 <0>        -0.1027
      8 C8         -1.8461   -0.8865   -1.4140 C.3       1 <0>         0.0932
      9 N1         -2.9698   -1.8264   -1.4250 N.pl3     1 <0>        -0.6566
     10 C9         -3.5944   -2.1169   -2.5841 C.2       1 <0>         0.3536
     11 C10        -4.7251   -2.9118   -2.5795 C.2       1 <0>        -0.4391
     12 C11        -5.3789   -3.3122   -1.3205 C.2       1 <0>         0.5728
     13 O1         -4.9380   -2.9515   -0.2453 O.2       1 <0>        -0.5137
     14 N2         -6.4794   -4.0889   -1.3926 N.am      1 <0>        -0.6145
     15 C12        -6.9756   -4.4934   -2.5702 C.2       1 <0>         0.5538
     16 S1         -8.3765   -5.4775   -2.5645 S.2       1 <0>        -0.5254
     17 N3         -6.4335   -4.1679   -3.7521 N.am      1 <0>        -0.6143
     18 C13        -5.3336   -3.3912   -3.8335 C.2       1 <0>         0.5768
     19 O2         -4.8537   -3.0987   -4.9126 O.2       1 <0>        -0.4936
     20 S2          3.3059    3.1364    0.0608 S.o2      1 <0>         2.7010
     21 O3          4.3575    2.5203   -0.6698 O.2       1 <0>        -0.9604
     22 O4          2.7758    4.4068   -0.2917 O.2       1 <0>        -0.9582
     23 N4          3.8269    3.2592    1.6279 N.pl3     1 <0>        -1.2475
     24 H1         -1.4039    1.9436    0.3569 H         1 <0>         0.1367
     25 H2          0.4843    3.5239    0.3713 H         1 <0>         0.1460
     26 H3          3.1926    0.2938   -0.2777 H         1 <0>         0.1459
     27 H4          1.3040   -1.2861   -0.2956 H         1 <0>         0.1366
     28 H5         -0.9883   -1.7044    0.3849 H         1 <0>         0.0926
     29 H6         -2.1186   -0.3564    0.6561 H         1 <0>         0.0938
     30 H7         -2.1799    0.0831   -1.7835 H         1 <0>         0.0915
     31 H8         -1.0496   -1.2649   -2.0548 H         1 <0>         0.0919
     32 H9         -3.2644   -2.2398   -0.5984 H         1 <0>         0.4260
     33 H10        -3.2112   -1.7285   -3.5161 H         1 <0>         0.1817
     34 H11        -6.9217   -4.3613   -0.5734 H         1 <0>         0.4458
     35 H12        -6.8440   -4.4951   -4.5678 H         1 <0>         0.4469
     36 H13         4.7595    3.4489    1.8155 H         1 <0>         0.4232
     37 H14         3.1996    3.1413    2.3583 H         1 <0>         0.4174
@<TRIPOS>BOND
     1    1    6 ar
     2    1    2 ar
     3    1   24 1
     4    2    3 ar
     5    2   25 1
     6    3    4 ar
     7    3   20 1
     8    4    5 ar
     9    4   26 1
    10    5    6 ar
    11    5   27 1
    12    6    7 1
    13    7    8 1
    14    7   28 1
    15    7   29 1
    16    8    9 1
    17    8   30 1
    18    8   31 1
    19    9   10 1
    20    9   32 1
    21   10   11 2
    22   10   33 1
    23   11   18 1
    24   11   12 1
    25   12   13 2
    26   12   14 am
    27   14   15 1
    28   14   34 1
    29   15   16 2
    30   15   17 1
    31   17   18 am
    32   17   35 1
    33   18   19 2
    34   20   21 2
    35   20   22 2
    36   20   23 1
    37   23   36 1
    38   23   37 1
@<TRIPOS>MOLECULE
ZINC05222723
   51    54     0     0     0
SMALL
USER_CHARGES
2-amino-9-[3,4-dihydroxy-5-(hydroxymethyl)tetrahydrofuran-2-yl]-8-(4-methyl-1-piperidyl)-1H-purin-6-one
@<TRIPOS>ATOM
      1 C1         -5.2396    4.4355    1.0803 C.3       1 <0>        -0.1459
      2 C2         -3.8619    4.1795    1.6947 C.3       1 <0>        -0.0971
      3 C3         -3.1604    5.5158    1.9527 C.3       1 <0>        -0.1102
      4 C4         -1.7598    5.2518    2.5102 C.3       1 <0>         0.0639
      5 N1         -0.9910    4.4527    1.5476 N.pl3     1 <0>        -0.4625
      6 C5         -1.6204    3.1456    1.3199 C.3       1 <0>         0.0692
      7 C6         -3.0167    3.3467    0.7268 C.3       1 <0>        -0.1098
      8 C7          0.3205    4.3059    1.9608 C.2       1 <0>         0.4158
      9 N2          0.7047    3.6734    3.0400 N.2       1 <0>        -0.4275
     10 C8          2.0598    3.7276    3.1327 C.2       1 <0>        -0.1217
     11 C9          3.0004    3.2322    4.0632 C.2       1 <0>         0.5911
     12 O1          2.6381    2.6001    5.0414 O.2       1 <0>        -0.5059
     13 N3          4.3113    3.4753    3.8429 N.am      1 <0>        -0.6412
     14 H1          4.9958    3.1349    4.4875 H         1 <0>         0.4312
     15 C10         4.7049    4.1824    2.7461 C.2       1 <0>         0.5992
     16 N4          3.8393    4.6485    1.8740 N.2       1 <0>        -0.5399
     17 C11         2.5258    4.4407    2.0243 C.2       1 <0>         0.3080
     18 N5          1.4143    4.8001    1.3036 N.pl3     1 <0>        -0.4305
     19 C12         1.4018    5.5670    0.0555 C.3       1 <0>         0.3142
     20 H2          0.4036    5.9588   -0.1401 H         1 <0>         0.1320
     21 C13         1.8739    4.6856   -1.1221 C.3       1 <0>         0.0776
     22 H3          2.4988    3.8679   -0.7632 H         1 <0>         0.0908
     23 C14         2.6977    5.6491   -2.0055 C.3       1 <0>         0.0504
     24 H4          2.2498    5.7370   -2.9953 H         1 <0>         0.0918
     25 C15         2.6258    6.9986   -1.2572 C.3       1 <0>         0.0529
     26 H5          1.8154    7.6099   -1.6541 H         1 <0>         0.0931
     27 O2          2.3615    6.6445    0.1178 O.3       1 <0>        -0.3351
     28 C16         3.9579    7.7425   -1.3714 C.3       1 <0>         0.0821
     29 O3          3.8345    9.0349   -0.7743 O.3       1 <0>        -0.5637
     30 O4          4.0509    5.2014   -2.1076 O.3       1 <0>        -0.5440
     31 O5          0.7528    4.1764   -1.8472 O.3       1 <0>        -0.5407
     32 N6          6.0436    4.4147    2.5471 N.pl3     1 <0>        -0.7454
     33 H6         -5.1234    4.9721    0.1386 H         1 <0>         0.0558
     34 H7         -5.7382    3.4837    0.8970 H         1 <0>         0.0553
     35 H8         -5.8385    5.0331    1.7675 H         1 <0>         0.0551
     36 H9         -3.9760    3.6404    2.6352 H         1 <0>         0.0713
     37 H10        -3.7359    6.0957    2.6742 H         1 <0>         0.0748
     38 H11        -3.0813    6.0716    1.0184 H         1 <0>         0.0735
     39 H12        -1.8402    4.7080    3.4515 H         1 <0>         0.0569
     40 H13        -1.2523    6.2011    2.6816 H         1 <0>         0.0762
     41 H14        -1.0115    2.5651    0.6268 H         1 <0>         0.0780
     42 H15        -1.7014    2.6117    2.2667 H         1 <0>         0.0557
     43 H16        -3.4897    2.3769    0.5725 H         1 <0>         0.0741
     44 H17        -2.9360    3.8681   -0.2270 H         1 <0>         0.0748
     45 H18         4.7350    7.1773   -0.8569 H         1 <0>         0.0693
     46 H19         4.2240    7.8520   -2.4228 H         1 <0>         0.0617
     47 H20         4.6433    9.5638   -0.8104 H         1 <0>         0.3846
     48 H21         4.6132    5.7699   -2.6514 H         1 <0>         0.3825
     49 H22         0.9916    3.6652   -2.6325 H         1 <0>         0.3903
     50 H23         6.4113    4.9293    3.3216 H         1 <0>         0.3727
     51 H24         6.3388    4.9163    1.7712 H         1 <0>         0.3951
@<TRIPOS>BOND
     1    1    2 1
     2    1   33 1
     3    1   34 1
     4    1   35 1
     5    2    7 1
     6    2    3 1
     7    2   36 1
     8    3    4 1
     9    3   37 1
    10    3   38 1
    11    4    5 1
    12    4   39 1
    13    4   40 1
    14    5    6 1
    15    5    8 1
    16    6    7 1
    17    6   41 1
    18    6   42 1
    19    7   43 1
    20    7   44 1
    21    8   18 1
    22    8    9 2
    23    9   10 1
    24   10   17 2
    25   10   11 1
    26   11   12 2
    27   11   13 am
    28   13   14 1
    29   13   15 1
    30   15   16 2
    31   15   32 1
    32   16   17 1
    33   17   18 1
    34   18   19 1
    35   19   20 1
    36   19   27 1
    37   19   21 1
    38   21   22 1
    39   21   23 1
    40   21   31 1
    41   23   24 1
    42   23   25 1
    43   23   30 1
    44   25   26 1
    45   25   27 1
    46   25   28 1
    47   28   29 1
    48   28   45 1
    49   28   46 1
    50   29   47 1
    51   30   48 1
    52   31   49 1
    53   32   50 1
    54   32   51 1
@<TRIPOS>MOLECULE
ZINC13957101
   32    33     0     0     0
SMALL
USER_CHARGES
[[phenyl-(2,4,6-trioxohexahydropyrimidin-5-ylidene)methyl]amino]thiourea
@<TRIPOS>ATOM
      1 C1         -0.3147    1.1517    0.7361 C.ar      1 <0>        -0.0816
      2 C2         -0.8147    2.0406    1.6717 C.ar      1 <0>        -0.1148
      3 C3         -0.7319    3.3992    1.4503 C.ar      1 <0>        -0.0375
      4 C4         -0.1517    3.8775    0.2717 C.ar      1 <0>        -0.1144
      5 C5          0.3459    2.9732   -0.6713 C.ar      1 <0>        -0.0926
      6 C6          0.2614    1.6177   -0.4329 C.ar      1 <0>        -0.1146
      7 C7         -0.0648    5.3280    0.0247 C.2       1 <0>         0.4174
      8 C8         -1.2302    6.0951   -0.0498 C.2       1 <0>        -0.4051
      9 C9         -2.5606    5.4687   -0.0661 C.2       1 <0>         0.5862
     10 O1         -2.6819    4.2588   -0.0144 O.2       1 <0>        -0.4848
     11 N1         -3.6431    6.2706   -0.1340 N.am      1 <0>        -0.6602
     12 C10        -3.5234    7.6044   -0.1969 C.2       1 <0>         0.7158
     13 O2         -4.5372    8.2716   -0.2621 O.2       1 <0>        -0.5283
     14 N2         -2.3431    8.2401   -0.1919 N.am      1 <0>        -0.6572
     15 C11        -1.1787    7.5629   -0.1215 C.2       1 <0>         0.5911
     16 O3         -0.1133    8.1514   -0.1170 O.2       1 <0>        -0.5358
     17 N3          1.1537    5.9216   -0.1313 N.pl3     1 <0>        -0.4814
     18 N4          2.3172    5.1411   -0.1399 N.pl3     1 <0>        -0.4861
     19 C12         3.5099    5.7123   -0.4001 C.2       1 <0>         0.5687
     20 S1          4.9316    4.7586   -0.4106 S.2       1 <0>        -0.5592
     21 N5          3.5833    7.0342   -0.6521 N.pl3     1 <0>        -0.7961
     22 H1         -0.3784    0.0889    0.9171 H         1 <0>         0.1324
     23 H2         -1.2669    1.6694    2.5796 H         1 <0>         0.1340
     24 H3         -1.1188    4.0917    2.1832 H         1 <0>         0.1273
     25 H4          0.7951    3.3354   -1.5842 H         1 <0>         0.1277
     26 H5          0.6454    0.9179   -1.1603 H         1 <0>         0.1354
     27 H6         -4.5279    5.8732   -0.1413 H         1 <0>         0.4377
     28 H7         -2.3261    9.2088   -0.2398 H         1 <0>         0.4374
     29 H8          1.2145    6.8840   -0.2362 H         1 <0>         0.4446
     30 H9          2.2643    4.1897    0.0415 H         1 <0>         0.4561
     31 H10         2.7778    7.5746   -0.6461 H         1 <0>         0.3969
     32 H11         4.4417    7.4453   -0.8394 H         1 <0>         0.4414
@<TRIPOS>BOND
     1    1    6 ar
     2    1    2 ar
     3    1   22 1
     4    2    3 ar
     5    2   23 1
     6    3    4 ar
     7    3   24 1
     8    4    5 ar
     9    4    7 1
    10    5    6 ar
    11    5   25 1
    12    6   26 1
    13    7    8 2
    14    7   17 1
    15    8   15 1
    16    8    9 1
    17    9   10 2
    18    9   11 am
    19   11   12 am
    20   11   27 1
    21   12   13 2
    22   12   14 am
    23   14   15 am
    24   14   28 1
    25   15   16 2
    26   17   18 1
    27   17   29 1
    28   18   19 1
    29   18   30 1
    30   19   20 2
    31   19   21 1
    32   21   31 1
    33   21   32 1
@<TRIPOS>MOLECULE
ZINC08652714
   38    39     0     0     0
SMALL
USER_CHARGES
5-chloro-2-methylsulfanyl-6-[[(2R,3S,4R,5S,6S)-3,4,5-trihydroxy-6-(hydroxymethyl)tetrahydropyran-2-yl]amino]-1H-pyrimidin-4-one
@<TRIPOS>ATOM
      1 C1         -8.6077    3.3643    0.6384 C.3       1 <0>        -0.2019
      2 S1         -7.4306    2.1257    0.0415 S.3       1 <0>         0.0611
      3 C2         -6.1985    3.1810   -0.6462 C.2       1 <0>         0.3839
      4 N1         -5.0934    2.6316   -1.2229 N.2       1 <0>        -0.5340
      5 C3         -4.1248    3.4371   -1.7634 C.2       1 <0>         0.4827
      6 C4         -4.2828    4.7923   -1.7092 C.2       1 <0>        -0.3219
      7 C5         -5.4440    5.3186   -1.1077 C.2       1 <0>         0.5489
      8 O1         -5.6116    6.5285   -1.0513 O.2       1 <0>        -0.5280
      9 N2         -6.3627    4.4863   -0.5937 N.am      1 <0>        -0.6317
     10 Cl1        -3.0773    5.8490   -2.3755 Cl        1 <0>        -0.0396
     11 N3         -3.0058    2.8876   -2.3476 N.pl3     1 <0>        -0.7054
     12 C6         -2.8439    1.4324   -2.3948 C.3       1 <0>         0.3247
     13 H1         -3.8320    0.9611   -2.2871 H         1 <0>         0.1507
     14 C7         -2.1439    1.0385   -3.6981 C.3       1 <0>         0.1041
     15 H2         -2.0997   -0.0542   -3.8167 H         1 <0>         0.0912
     16 C8         -0.7455    1.6630   -3.7264 C.3       1 <0>         0.0942
     17 H3         -0.7941    2.7601   -3.7902 H         1 <0>         0.0707
     18 C9          0.0313    1.2053   -2.4881 C.3       1 <0>         0.0630
     19 H4          1.0483    1.6241   -2.4727 H         1 <0>         0.0692
     20 C10        -0.7527    1.5927   -1.2315 C.3       1 <0>         0.0505
     21 H5         -0.9159    2.6793   -1.1809 H         1 <0>         0.0753
     22 O2         -2.0540    1.0045   -1.2834 O.3       1 <0>        -0.3517
     23 C11        -0.0127    1.0858    0.0080 C.3       1 <0>         0.0953
     24 O3         -0.6816    1.5467    1.1837 O.3       1 <0>        -0.5889
     25 O4          0.1998   -0.2132   -2.5275 O.3       1 <0>        -0.5726
     26 O5         -0.0573    1.2409   -4.9055 O.3       1 <0>        -0.5832
     27 O6         -2.9028    1.5160   -4.8108 O.3       1 <0>        -0.5855
     28 H6         -9.4636    2.8594    1.1100 H         1 <0>         0.1381
     29 H7         -8.9611    3.9719   -0.2077 H         1 <0>         0.1003
     30 H8         -8.1137    4.0143    1.3756 H         1 <0>         0.1002
     31 H9         -2.2333    3.5412   -2.7789 H         1 <0>         0.4310
     32 H10         0.0022   -0.0141    0.0019 H         1 <0>         0.0560
     33 H11         1.0193    1.4665    0.0002 H         1 <0>         0.0570
     34 H12        -0.2927    1.2807    2.1777 H         1 <0>         0.4127
     35 H13         0.7374   -0.7259   -1.7163 H         1 <0>         0.4063
     36 H14         0.9676    1.5904   -5.0990 H         1 <0>         0.4137
     37 H15        -2.5534    1.3269   -5.8366 H         1 <0>         0.4215
     38 H16        -7.2629    4.9089   -0.1236 H         1 <0>         0.4423
@<TRIPOS>BOND
     1    1    2 1
     2    1   28 1
     3    1   29 1
     4    1   30 1
     5    2    3 1
     6    3    9 1
     7    3    4 2
     8    4    5 1
     9    5    6 2
    10    5   11 1
    11    6    7 1
    12    6   10 1
    13    7    8 2
    14    7    9 am
    15    9   38 1
    16   11   12 1
    17   11   31 1
    18   12   13 1
    19   12   22 1
    20   12   14 1
    21   14   15 1
    22   14   16 1
    23   14   27 1
    24   16   17 1
    25   16   18 1
    26   16   26 1
    27   18   19 1
    28   18   20 1
    29   18   25 1
    30   20   21 1
    31   20   22 1
    32   20   23 1
    33   23   24 1
    34   23   32 1
    35   23   33 1
    36   24   34 1
    37   25   35 1
    38   26   36 1
    39   27   37 1
@<TRIPOS>MOLECULE
ZINC45818697
   47    49     0     0     0
SMALL
USER_CHARGES

@<TRIPOS>ATOM
      1 C1          0.0979    1.2602    1.2740 C.ar      1 <0>        -0.0864
      2 C2          1.2777    1.9832    1.2728 C.ar      1 <0>        -0.0920
      3 C3          2.4834    1.3228    1.0838 C.ar      1 <0>         0.0051
      4 C4          2.4905   -0.0294    0.9017 C.ar      1 <0>        -0.6161
      5 C5          1.3125   -0.7888    0.8979 C.ar      1 <0>        -0.1205
      6 C6          0.1026   -0.1041    1.0905 C.ar      1 <0>        -0.0540
      7 C7          1.5759   -2.2201    0.6838 C.2       1 <0>         0.5098
      8 N1          2.7970   -2.6224    0.5282 N.2       1 <0>        -0.8769
      9 S1          3.7477   -1.2491    0.6334 S.o2      1 <0>         2.5809
     10 O1          4.5181   -1.3459    1.8234 O.2       1 <0>        -0.9411
     11 O2          4.3123   -1.0140   -0.6493 O.2       1 <0>        -0.9412
     12 N2          0.5353   -3.1225    0.6498 N.pl3     1 <0>        -0.6707
     13 C8          0.8070   -4.5462    0.4361 C.3       1 <0>         0.1310
     14 C9         -0.5108   -5.3234    0.4420 C.3       1 <0>        -0.1584
     15 C10        -0.2313   -6.7879    0.2222 C.2       1 <0>         0.5181
     16 O3          0.9096   -7.1721    0.0752 O.2       1 <0>        -0.5289
     17 N3         -1.2492   -7.6706    0.1888 N.am      1 <0>        -0.7257
     18 C11        -0.9775   -9.0942   -0.0249 C.3       1 <0>         0.1635
     19 C12        -2.2755   -9.8598   -0.0190 C.ar      1 <0>        -0.1302
     20 C13        -2.7737  -10.3642    1.1682 C.ar      1 <0>        -0.0776
     21 C14        -3.9630  -11.0663    1.1769 C.ar      1 <0>        -0.1222
     22 C15        -4.6587  -11.2654   -0.0083 C.ar      1 <0>         0.1752
     23 C16        -4.1558  -10.7576   -1.1989 C.ar      1 <0>        -0.1496
     24 C17        -2.9688  -10.0515   -1.2000 C.ar      1 <0>        -0.0776
     25 N4         -5.8639  -11.9767   -0.0029 N.am      1 <0>        -0.6869
     26 C18        -6.6872  -11.8995    1.0613 C.2       1 <0>         0.7054
     27 O4         -6.4311  -11.1383    1.9742 O.2       1 <0>        -0.5739
     28 N5         -7.7945  -12.6661    1.1137 N.am      1 <0>        -0.8601
     29 H1         -0.8403    1.7733    1.4255 H         1 <0>         0.1445
     30 H2          1.2602    3.0533    1.4175 H         1 <0>         0.1473
     31 H3          3.4109    1.8761    1.0805 H         1 <0>         0.1455
     32 H4         -0.8291   -0.6502    1.0951 H         1 <0>         0.1389
     33 H5         -0.3772   -2.8153    0.7673 H         1 <0>         0.4134
     34 H6          1.3040   -4.6810   -0.5246 H         1 <0>         0.0940
     35 H7          1.4510   -4.9168    1.2335 H         1 <0>         0.0941
     36 H8         -1.0079   -5.1886    1.4027 H         1 <0>         0.1047
     37 H9         -1.1549   -4.9527   -0.3555 H         1 <0>         0.1044
     38 H10        -2.1617   -7.3633    0.3064 H         1 <0>         0.4033
     39 H11        -0.4805   -9.2291   -0.9855 H         1 <0>         0.0786
     40 H12        -0.3334   -9.4649    0.7726 H         1 <0>         0.0786
     41 H13        -2.2319  -10.2094    2.0896 H         1 <0>         0.1284
     42 H14        -4.3514  -11.4603    2.1044 H         1 <0>         0.1384
     43 H15        -4.6944  -10.9110   -2.1224 H         1 <0>         0.1281
     44 H16        -2.5793   -9.6525   -2.1250 H         1 <0>         0.1292
     45 H17        -6.1067  -12.5253   -0.7652 H         1 <0>         0.4091
     46 H18        -7.9989  -13.2734    0.3854 H         1 <0>         0.4001
     47 H19        -8.3871  -12.6105    1.8796 H         1 <0>         0.4205
@<TRIPOS>BOND
     1    1    6 ar
     2    1    2 ar
     3    1   29 1
     4    2    3 ar
     5    2   30 1
     6    3    4 ar
     7    3   31 1
     8    4    9 1
     9    4    5 ar
    10    5    6 ar
    11    5    7 1
    12    6   32 1
    13    7    8 2
    14    7   12 1
    15    8    9 1
    16    9   10 2
    17    9   11 2
    18   12   13 1
    19   12   33 1
    20   13   14 1
    21   13   34 1
    22   13   35 1
    23   14   15 1
    24   14   36 1
    25   14   37 1
    26   15   16 2
    27   15   17 am
    28   17   18 1
    29   17   38 1
    30   18   19 1
    31   18   39 1
    32   18   40 1
    33   19   24 ar
    34   19   20 ar
    35   20   21 ar
    36   20   41 1
    37   21   22 ar
    38   21   42 1
    39   22   23 ar
    40   22   25 1
    41   23   24 ar
    42   23   43 1
    43   24   44 1
    44   25   26 am
    45   25   45 1
    46   26   27 2
    47   26   28 am
    48   28   46 1
    49   28   47 1
@<TRIPOS>MOLECULE
ZINC17377250
   35    37     0     0     0
SMALL
USER_CHARGES

@<TRIPOS>ATOM
      1 C1         -0.0163    1.3529    0.0095 C.2       1 <0>         0.3679
      2 N1          1.0776    2.0617    0.0028 N.2       1 <0>        -0.4941
      3 C2          2.2845    1.4773   -0.0118 C.2       1 <0>         0.2837
      4 C3          2.3758    0.0819   -0.0201 C.2       1 <0>        -0.0250
      5 C4          1.1770   -0.6722   -0.0124 C.2       1 <0>         0.3593
      6 N2          0.0021   -0.0041    0.0020 N.pl3     1 <0>        -0.5747
      7 S1          1.2150   -2.3838   -0.0224 S.2       1 <0>        -0.5249
      8 N3          3.6911   -0.2350   -0.0350 N.2       1 <0>        -0.4193
      9 C5          4.3978    0.8588   -0.0364 C.2       1 <0>         0.2589
     10 N4          3.5712    1.9421   -0.0223 N.pl3     1 <0>        -0.4454
     11 C6          3.9849    3.3475   -0.0200 C.3       1 <0>         0.3046
     12 H1          3.2850    3.9406   -0.6086 H         1 <0>         0.1490
     13 C7          4.0332    3.8771    1.4264 C.3       1 <0>         0.0397
     14 H2          3.3992    4.7574    1.5317 H         1 <0>         0.1025
     15 C8          5.5197    4.2507    1.6442 C.3       1 <0>         0.0517
     16 H3          5.8539    3.9534    2.6382 H         1 <0>         0.0994
     17 C9          6.2286    3.4139    0.5490 C.3       1 <0>         0.0771
     18 H4          6.3681    2.3854    0.8819 H         1 <0>         0.1074
     19 O1          5.3086    3.4683   -0.5670 O.3       1 <0>        -0.3306
     20 C10         7.5716    4.0440    0.1743 C.3       1 <0>         0.1007
     21 O2          8.2555    3.1942   -0.7488 O.3       1 <0>        -0.3643
     22 C11         9.4618    3.6069   -1.1812 C.2       1 <0>         0.6536
     23 O3          9.9214    4.6599   -0.7856 O.2       1 <0>        -0.5706
     24 N5         10.1597    2.8522   -2.0529 N.am      1 <0>        -0.8233
     25 O4          5.7301    5.6486    1.4349 O.3       1 <0>        -0.5413
     26 O5          3.6307    2.8595    2.3453 O.3       1 <0>        -0.5405
     27 H5         -0.9686    1.8622    0.0259 H         1 <0>         0.2279
     28 H6          5.4769    0.9010   -0.0467 H         1 <0>         0.2229
     29 H7          7.4005    5.0172   -0.2858 H         1 <0>         0.0940
     30 H8          8.1777    4.1679    1.0718 H         1 <0>         0.0924
     31 H9          9.7928    2.0116   -2.3687 H         1 <0>         0.4105
     32 H10        11.0288    3.1495   -2.3645 H         1 <0>         0.4283
     33 H11         5.2342    6.2160    2.0409 H         1 <0>         0.3905
     34 H12         3.6425    3.1385    3.2711 H         1 <0>         0.3920
     35 H13        -0.8330   -0.4975    0.0076 H         1 <0>         0.4401
@<TRIPOS>BOND
     1    1    6 1
     2    1    2 2
     3    1   27 1
     4    2    3 1
     5    3   10 1
     6    3    4 2
     7    4    5 1
     8    4    8 1
     9    5    6 1
    10    5    7 2
    11    6   35 1
    12    8    9 2
    13    9   10 1
    14    9   28 1
    15   10   11 1
    16   11   12 1
    17   11   19 1
    18   11   13 1
    19   13   14 1
    20   13   15 1
    21   13   26 1
    22   15   16 1
    23   15   17 1
    24   15   25 1
    25   17   18 1
    26   17   19 1
    27   17   20 1
    28   20   21 1
    29   20   29 1
    30   20   30 1
    31   21   22 1
    32   22   23 2
    33   22   24 am
    34   24   31 1
    35   24   32 1
    36   25   33 1
    37   26   34 1
@<TRIPOS>MOLECULE
ZINC04185265
   39    40     0     0     0
SMALL
USER_CHARGES
2-(hydroxymethyl)-6-[4-(trifluoromethoxy)phenyl]amino-tetrahydropyran-3,4,5-triol
@<TRIPOS>ATOM
      1 C1          4.3169   -0.3208    2.2917 C.ar      1 <0>        -0.1430
      2 C2          5.3536   -1.0549    2.8339 C.ar      1 <0>        -0.1403
      3 C3          6.6157   -0.4916    2.9509 C.ar      1 <0>         0.0514
      4 C4          6.8392    0.8071    2.5183 C.ar      1 <0>        -0.0750
      5 C5          5.8049    1.5407    1.9710 C.ar      1 <0>        -0.1500
      6 C6          4.5411    0.9776    1.8535 C.ar      1 <0>         0.1977
      7 N1          3.4926    1.7202    1.2991 N.pl3     1 <0>        -0.7236
      8 C7          2.2040    1.0784    1.0275 C.3       1 <0>         0.2895
      9 H1          2.3575    0.0130    0.8560 H         1 <0>         0.0846
     10 C8          1.5710    1.7096   -0.2153 C.3       1 <0>         0.0448
     11 H2          1.4544    2.7821   -0.0598 H         1 <0>         0.0846
     12 C9          0.1980    1.0752   -0.4577 C.3       1 <0>         0.0858
     13 H3          0.3189    0.0114   -0.6623 H         1 <0>         0.0752
     14 C10        -0.6663    1.2615    0.7931 C.3       1 <0>         0.0877
     15 H4         -1.6259    0.7648    0.6501 H         1 <0>         0.0849
     16 C11         0.0531    0.6475    1.9970 C.3       1 <0>         0.1084
     17 H5          0.1785   -0.4235    1.8382 H         1 <0>         0.0839
     18 O1          1.3352    1.2604    2.1475 O.3       1 <0>        -0.3703
     19 C12        -0.7762    0.8824    3.2612 C.3       1 <0>         0.0891
     20 O2         -0.1637    0.2114    4.3642 O.3       1 <0>        -0.5671
     21 O3         -0.8785    2.6557    1.0237 O.3       1 <0>        -0.5467
     22 O4         -0.4307    1.7082   -1.5739 O.3       1 <0>        -0.5569
     23 O5          2.4101    1.4799   -1.3490 O.3       1 <0>        -0.5566
     24 O6          7.6345   -1.2131    3.4905 O.3       1 <0>        -0.3107
     25 C13         7.3333   -2.5439    3.9149 C.3       1 <0>         0.6034
     26 F1          6.8815   -3.2910    2.8218 F         1 <0>        -0.1668
     27 F2          8.4856   -3.1376    4.4412 F         1 <0>        -0.1323
     28 F3          6.3380   -2.5061    4.8973 F         1 <0>        -0.1658
     29 H6          3.3331   -0.7579    2.2051 H         1 <0>         0.1301
     30 H7          5.1804   -2.0662    3.1710 H         1 <0>         0.1338
     31 H8          7.8222    1.2449    2.6098 H         1 <0>         0.1409
     32 H9          5.9790    2.5522    1.6349 H         1 <0>         0.1376
     33 H10         3.6190    2.6600    1.0946 H         1 <0>         0.4047
     34 H11        -0.8272    1.9512    3.4689 H         1 <0>         0.0677
     35 H12        -1.7833    0.4928    3.1126 H         1 <0>         0.0641
     36 H13        -0.6369    0.3172    5.2008 H         1 <0>         0.3845
     37 H14        -1.3265    3.1107    0.2975 H         1 <0>         0.3884
     38 H15         0.0656    1.6318   -2.4003 H         1 <0>         0.3949
     39 H16         3.2972    1.8552   -1.2642 H         1 <0>         0.3874
@<TRIPOS>BOND
     1    1    6 ar
     2    1    2 ar
     3    1   29 1
     4    2    3 ar
     5    2   30 1
     6    3    4 ar
     7    3   24 1
     8    4    5 ar
     9    4   31 1
    10    5    6 ar
    11    5   32 1
    12    6    7 1
    13    7    8 1
    14    7   33 1
    15    8    9 1
    16    8   18 1
    17    8   10 1
    18   10   11 1
    19   10   12 1
    20   10   23 1
    21   12   13 1
    22   12   14 1
    23   12   22 1
    24   14   15 1
    25   14   16 1
    26   14   21 1
    27   16   17 1
    28   16   18 1
    29   16   19 1
    30   19   20 1
    31   19   34 1
    32   19   35 1
    33   20   36 1
    34   21   37 1
    35   22   38 1
    36   23   39 1
    37   24   25 1
    38   25   26 1
    39   25   27 1
    40   25   28 1
@<TRIPOS>MOLECULE
ZINC05337346
   47    50     0     0     0
SMALL
USER_CHARGES
(2S,3S,4S,5S)-2-[6-amino-8-(1-piperidyl)purin-9-yl]-5-(hydroxymethyl)tetrahydrofuran-3,4-diol
@<TRIPOS>ATOM
      1 C1         -2.7876    4.4706    6.5136 C.ar      1 <0>         0.3427
      2 N1         -3.6062    5.2622    5.8450 N.ar      1 <0>        -0.5717
      3 C2         -3.5367    5.3639    4.5217 C.ar      1 <0>         0.4444
      4 C3         -2.5682    4.6074    3.8419 C.ar      1 <0>        -0.0599
      5 C4         -1.7216    3.7808    4.5978 C.ar      1 <0>         0.3069
      6 N2         -1.8652    3.7438    5.9182 N.ar      1 <0>        -0.5210
      7 N3         -0.8838    3.1647    3.6968 N.pl3     1 <0>        -0.4487
      8 C5         -1.2236    3.6120    2.4499 C.2       1 <0>         0.4656
      9 N4         -2.2126    4.4660    2.5401 N.2       1 <0>        -0.4643
     10 N5         -0.6125    3.2260    1.2740 N.pl3     1 <0>        -0.4700
     11 C6         -1.5805    2.6160    0.3535 C.3       1 <0>         0.0694
     12 C7         -0.8462    2.0715   -0.8738 C.3       1 <0>        -0.1159
     13 C8         -0.1032    3.2161   -1.5684 C.3       1 <0>        -0.1246
     14 C9          0.8636    3.8645   -0.5737 C.3       1 <0>        -0.1160
     15 C10         0.0796    4.3579    0.6444 C.3       1 <0>         0.0649
     16 C11         0.1773    2.2059    4.0148 C.3       1 <0>         0.3173
     17 H1          0.8103    2.0332    3.1445 H         1 <0>         0.1332
     18 C12        -0.4268    0.8723    4.5237 C.3       1 <0>         0.0768
     19 H2         -1.3051    1.0544    5.1430 H         1 <0>         0.0946
     20 C13         0.7352    0.2944    5.3710 C.3       1 <0>         0.0496
     21 H3          1.3002   -0.4355    4.7914 H         1 <0>         0.0946
     22 C14         1.6118    1.5189    5.6979 C.3       1 <0>         0.0546
     23 H4          2.6008    1.3952    5.2565 H         1 <0>         0.0920
     24 O1          0.9647    2.6710    5.1320 O.3       1 <0>        -0.3387
     25 C15         1.7359    1.6841    7.2139 C.3       1 <0>         0.0811
     26 O2          2.6315    2.7591    7.5042 O.3       1 <0>        -0.5646
     27 O3          0.2376   -0.2993    6.5718 O.3       1 <0>        -0.5483
     28 O4         -0.7454    0.0073    3.4318 O.3       1 <0>        -0.5417
     29 N6         -4.3997    6.1975    3.8287 N.pl3     1 <0>        -0.7441
     30 H5         -2.8779    4.4175    7.5885 H         1 <0>         0.2057
     31 H6         -2.3053    3.3671    0.0395 H         1 <0>         0.0574
     32 H7         -2.0984    1.8005    0.8583 H         1 <0>         0.0797
     33 H8         -1.5668    1.6334   -1.5644 H         1 <0>         0.0756
     34 H9         -0.1314    1.3099   -0.5621 H         1 <0>         0.0743
     35 H10         0.4565    2.8246   -2.4179 H         1 <0>         0.0693
     36 H11        -0.8215    3.9585   -1.9164 H         1 <0>         0.0639
     37 H12         1.6053    3.1314   -0.2566 H         1 <0>         0.0736
     38 H13         1.3651    4.7069   -1.0501 H         1 <0>         0.0760
     39 H14         0.7670    4.8073    1.3611 H         1 <0>         0.0766
     40 H15        -0.6527    5.1009    0.3285 H         1 <0>         0.0578
     41 H16         0.7556    1.9036    7.6369 H         1 <0>         0.0698
     42 H17         2.1215    0.7623    7.6494 H         1 <0>         0.0588
     43 H18         2.7582    2.9212    8.4490 H         1 <0>         0.3841
     44 H19         0.9282   -0.6273    7.1639 H         1 <0>         0.3855
     45 H20        -1.1264   -0.8402    3.6996 H         1 <0>         0.3918
     46 H21        -3.8711    6.8855    3.3315 H         1 <0>         0.3684
     47 H22        -5.0645    6.7151    4.3094 H         1 <0>         0.3733
@<TRIPOS>BOND
     1    1    6 ar
     2    1    2 ar
     3    1   30 1
     4    2    3 ar
     5    3    4 ar
     6    3   29 1
     7    4    9 1
     8    4    5 ar
     9    5    6 ar
    10    5    7 1
    11    7    8 1
    12    7   16 1
    13    8    9 2
    14    8   10 1
    15   10   15 1
    16   10   11 1
    17   11   12 1
    18   11   31 1
    19   11   32 1
    20   12   13 1
    21   12   33 1
    22   12   34 1
    23   13   14 1
    24   13   35 1
    25   13   36 1
    26   14   15 1
    27   14   37 1
    28   14   38 1
    29   15   39 1
    30   15   40 1
    31   16   17 1
    32   16   24 1
    33   16   18 1
    34   18   19 1
    35   18   20 1
    36   18   28 1
    37   20   21 1
    38   20   22 1
    39   20   27 1
    40   22   23 1
    41   22   24 1
    42   22   25 1
    43   25   26 1
    44   25   41 1
    45   25   42 1
    46   26   43 1
    47   27   44 1
    48   28   45 1
    49   29   46 1
    50   29   47 1
@<TRIPOS>MOLECULE
ZINC36283885
   34    35     0     0     0
SMALL
USER_CHARGES

@<TRIPOS>ATOM
      1 C1         -1.5163    0.6280    2.6059 C.ar      1 <0>        -0.1564
      2 C2         -0.7066    1.7436    2.7119 C.ar      1 <0>         0.0355
      3 C3          0.5444    1.7479    2.1242 C.ar      1 <0>        -0.6970
      4 C4          0.9862    0.6364    1.4308 C.ar      1 <0>         0.0852
      5 C5          0.1771   -0.4792    1.3257 C.ar      1 <0>        -0.6949
      6 C6         -1.0748   -0.4830    1.9124 C.ar      1 <0>         0.0381
      7 S1          0.7397   -1.8954    0.4410 S.o2      1 <0>         2.6870
      8 O1         -0.4171   -2.5331   -0.0828 O.2       1 <0>        -0.9506
      9 O2          1.8095   -1.4589   -0.3862 O.2       1 <0>        -0.9403
     10 N1          1.3935   -2.9374    1.5497 N.pl3     1 <0>        -1.0528
     11 C7          2.5162   -2.5543    2.2933 C.ar      1 <0>         0.0509
     12 C8          3.7690   -2.5274    1.6952 C.ar      1 <0>        -0.0505
     13 C9          4.8764   -2.1500    2.4289 C.ar      1 <0>        -0.1891
     14 C10         4.7370   -1.7969    3.7645 C.ar      1 <0>         0.2289
     15 C11         3.4840   -1.8233    4.3625 C.ar      1 <0>        -0.1962
     16 C12         2.3759   -2.1957    3.6275 C.ar      1 <0>        -0.0624
     17 N2          5.8597   -1.4147    4.5084 N.pl3     1 <0>        -0.8743
     18 S2          1.5758    3.1702    2.2582 S.o2      1 <0>         2.6996
     19 O3          2.4758    3.1242    1.1594 O.2       1 <0>        -0.9534
     20 O4          0.7145    4.2760    2.4916 O.2       1 <0>        -0.9578
     21 N3          2.4898    2.9850    3.6266 N.pl3     1 <0>        -1.2478
     22 H1         -2.4920    0.6230    3.0690 H         1 <0>         0.1477
     23 H2         -1.0517    2.6119    3.2535 H         1 <0>         0.1530
     24 H3          1.9634    0.6400    0.9710 H         1 <0>         0.1610
     25 H4         -1.7073   -1.3545    1.8296 H         1 <0>         0.1501
     26 H5          0.9987   -3.8132    1.6838 H         1 <0>         0.4240
     27 H6          3.8775   -2.8021    0.6564 H         1 <0>         0.1366
     28 H7          5.8510   -2.1298    1.9639 H         1 <0>         0.1298
     29 H8          3.3756   -1.5487    5.4014 H         1 <0>         0.1268
     30 H9          1.4008   -2.2124    4.0915 H         1 <0>         0.1272
     31 H10         6.7350   -1.3965    4.0908 H         1 <0>         0.4017
     32 H11         5.7623   -1.1680    5.4415 H         1 <0>         0.4002
     33 H12         2.3862    2.1919    4.1754 H         1 <0>         0.4169
     34 H13         3.1288    3.6696    3.8794 H         1 <0>         0.4232
@<TRIPOS>BOND
     1    1    6 ar
     2    1    2 ar
     3    1   22 1
     4    2    3 ar
     5    2   23 1
     6    3    4 ar
     7    3   18 1
     8    4    5 ar
     9    4   24 1
    10    5    6 ar
    11    5    7 1
    12    6   25 1
    13    7    8 2
    14    7    9 2
    15    7   10 1
    16   10   11 1
    17   10   26 1
    18   11   16 ar
    19   11   12 ar
    20   12   13 ar
    21   12   27 1
    22   13   14 ar
    23   13   28 1
    24   14   15 ar
    25   14   17 1
    26   15   16 ar
    27   15   29 1
    28   16   30 1
    29   17   31 1
    30   17   32 1
    31   18   19 2
    32   18   20 2
    33   18   21 1
    34   21   33 1
    35   21   34 1
@<TRIPOS>MOLECULE
ZINC45067987
   33    33     0     0     0
SMALL
USER_CHARGES

@<TRIPOS>ATOM
      1 C1         -0.0167    1.3783    0.0096 C.ar      1 <0>        -0.0662
      2 C2          1.1697    2.0893    0.0021 C.ar      1 <0>        -0.0794
      3 C3          2.3780    1.4195   -0.0130 C.ar      1 <0>        -0.0658
      4 C4          2.3999    0.0293   -0.0206 C.ar      1 <0>         0.2116
      5 C5          1.2067   -0.6805   -0.0130 C.ar      1 <0>        -0.0932
      6 C6          0.0021   -0.0041    0.0020 C.ar      1 <0>        -0.6261
      7 S1         -1.5124   -0.9045    0.0122 S.o2      1 <0>         2.6969
      8 O1         -1.2197   -2.1854    0.5533 O.2       1 <0>        -0.9507
      9 O2         -2.4924   -0.0446    0.5773 O.2       1 <0>        -0.9489
     10 N1         -1.9489   -1.1462   -1.5669 N.pl3     1 <0>        -1.1176
     11 C7         -1.1158   -1.9789   -2.4379 C.3       1 <0>         0.1223
     12 C8         -1.9036   -2.3477   -3.6966 C.3       1 <0>        -0.1211
     13 C9         -1.0334   -3.2173   -4.6063 C.3       1 <0>        -0.6266
     14 S2         -1.9674   -3.6546   -6.0986 S.o2      1 <0>         2.6165
     15 O3         -3.0409   -4.5246   -5.7668 O.2       1 <0>        -0.9586
     16 O4         -2.1916   -2.4975   -6.8923 O.2       1 <0>        -0.9598
     17 N2         -0.9298   -4.5856   -6.9925 N.pl3     1 <0>        -1.2512
     18 N3          3.6200   -0.6519   -0.0363 N.pl3     1 <0>        -0.8682
     19 Cl1         3.8668    2.3123   -0.0230 Cl        1 <0>        -0.0558
     20 H1         -0.9598    1.9042    0.0260 H         1 <0>         0.1487
     21 H2          1.1515    3.1692    0.0077 H         1 <0>         0.1451
     22 H3          1.2201   -1.7604   -0.0193 H         1 <0>         0.1478
     23 H4         -2.7563   -0.7365   -1.9151 H         1 <0>         0.4233
     24 H5         -0.2191   -1.4267   -2.7193 H         1 <0>         0.0733
     25 H6         -0.8313   -2.8879   -1.9079 H         1 <0>         0.0881
     26 H7         -2.8002   -2.9000   -3.4152 H         1 <0>         0.0947
     27 H8         -2.1880   -1.4387   -4.2266 H         1 <0>         0.0926
     28 H9         -0.1368   -2.6651   -4.8877 H         1 <0>         0.1402
     29 H10        -0.7489   -4.1264   -4.0763 H         1 <0>         0.1418
     30 H11        -0.0384   -4.7743   -6.6598 H         1 <0>         0.4132
     31 H12        -1.2135   -4.9423   -7.8488 H         1 <0>         0.4223
     32 H13         4.4529   -0.1548   -0.0419 H         1 <0>         0.4048
     33 H14         3.6339   -1.6218   -0.0416 H         1 <0>         0.4060
@<TRIPOS>BOND
     1    1    6 ar
     2    1    2 ar
     3    1   20 1
     4    2    3 ar
     5    2   21 1
     6    3    4 ar
     7    3   19 1
     8    4    5 ar
     9    4   18 1
    10    5    6 ar
    11    5   22 1
    12    6    7 1
    13    7    8 2
    14    7    9 2
    15    7   10 1
    16   10   11 1
    17   10   23 1
    18   11   12 1
    19   11   24 1
    20   11   25 1
    21   12   13 1
    22   12   26 1
    23   12   27 1
    24   13   14 1
    25   13   28 1
    26   13   29 1
    27   14   15 2
    28   14   16 2
    29   14   17 1
    30   17   30 1
    31   17   31 1
    32   18   32 1
    33   18   33 1
@<TRIPOS>MOLECULE
ZINC54441053
   35    36     0     0     0
SMALL
USER_CHARGES

@<TRIPOS>ATOM
      1 C1         -0.0175    1.4408    0.0100 C.2       1 <0>        -0.1024
      2 C2          1.1856    2.0439    0.0017 C.2       1 <0>        -0.2543
      3 S1          2.3276    0.6794   -0.0165 S.3       1 <0>         0.2896
      4 C3          1.2511   -0.6074   -0.0131 C.2       1 <0>         0.0829
      5 C4          0.0021   -0.0041    0.0020 C.2       1 <0>        -0.2731
      6 C5         -1.2345   -0.7918    0.0096 C.2       1 <0>         0.5913
      7 O1         -1.1815   -2.0078    0.0030 O.2       1 <0>        -0.5654
      8 N1         -2.4299   -0.1695    0.0238 N.am      1 <0>        -0.8486
      9 N2          1.5429   -1.9630   -0.0232 N.am      1 <0>        -0.6107
     10 C6          2.8257   -2.3760   -0.0372 C.2       1 <0>         0.5136
     11 O2          3.7249   -1.5621   -0.0409 O.2       1 <0>        -0.4934
     12 C7          3.1429   -3.8492   -0.0481 C.3       1 <0>        -0.1229
     13 C8          4.6604   -4.0442   -0.0630 C.3       1 <0>        -0.1017
     14 S2          5.0421   -5.8175   -0.0762 S.3       1 <0>         0.0310
     15 C9          6.8031   -5.8743   -0.0926 C.ar      1 <0>         0.3643
     16 N3          7.4837   -4.7342   -0.0872 N.ar      1 <0>        -0.5612
     17 C10         8.8041   -4.7276   -0.0989 C.ar      1 <0>         0.2554
     18 C11         9.4902   -5.9468   -0.1174 C.ar      1 <0>        -0.2172
     19 C12         8.7323   -7.1382   -0.1227 C.ar      1 <0>         0.5001
     20 N4          7.4075   -7.0539   -0.1045 N.ar      1 <0>        -0.5570
     21 N5          9.3575   -8.3683   -0.1412 N.pl3     1 <0>        -0.8164
     22 C13        10.9216   -5.9854   -0.1312 C.1       1 <0>         0.2608
     23 N6         12.0571   -6.0160   -0.1420 N.1       1 <0>        -0.4078
     24 H1         -0.9402    2.0018    0.0261 H         1 <0>         0.1421
     25 H2          1.4051    3.1013    0.0050 H         1 <0>         0.1895
     26 H3         -2.4722    0.7996    0.0291 H         1 <0>         0.4019
     27 H4         -3.2480   -0.6906    0.0289 H         1 <0>         0.4049
     28 H5          0.8238   -2.6139   -0.0202 H         1 <0>         0.4352
     29 H6          2.7252   -4.3175    0.8432 H         1 <0>         0.1166
     30 H7          2.7089   -4.3077   -0.9367 H         1 <0>         0.1166
     31 H8          5.0781   -3.5759   -0.9543 H         1 <0>         0.1103
     32 H9          5.0943   -3.5857    0.8255 H         1 <0>         0.1104
     33 H10         9.3469   -3.7940   -0.0947 H         1 <0>         0.1822
     34 H11        10.3261   -8.4199   -0.1508 H         1 <0>         0.4163
     35 H12         8.8285   -9.1813   -0.1447 H         1 <0>         0.4174
@<TRIPOS>BOND
     1    1    5 1
     2    1    2 2
     3    1   24 1
     4    2    3 1
     5    2   25 1
     6    3    4 1
     7    4    5 2
     8    4    9 1
     9    5    6 1
    10    6    7 2
    11    6    8 am
    12    8   26 1
    13    8   27 1
    14    9   10 am
    15    9   28 1
    16   10   11 2
    17   10   12 1
    18   12   13 1
    19   12   29 1
    20   12   30 1
    21   13   14 1
    22   13   31 1
    23   13   32 1
    24   14   15 1
    25   15   20 ar
    26   15   16 ar
    27   16   17 ar
    28   17   18 ar
    29   17   33 1
    30   18   19 ar
    31   18   22 1
    32   19   20 ar
    33   19   21 1
    34   21   34 1
    35   21   35 1
    36   22   23 3
@<TRIPOS>MOLECULE
ZINC05344125
   36    38     0     0     0
SMALL
USER_CHARGES
2-amino-9-[3,4-dihydroxy-5-(hydroxymethyl)tetrahydrofuran-2-yl]-1-methyl-purin-6-one
@<TRIPOS>ATOM
      1 C1         -1.1371    8.2843   -7.1741 C.3       1 <0>         0.0581
      2 N1         -0.9413    7.2855   -6.1205 N.am      1 <0>        -0.5529
      3 C2          0.0063    7.4806   -5.1769 C.2       1 <0>         0.5926
      4 O1          0.7040    8.4804   -5.1894 O.2       1 <0>        -0.5063
      5 C3          0.1682    6.4963   -4.1740 C.2       1 <0>        -0.1461
      6 C4         -0.6622    5.3700   -4.2005 C.2       1 <0>         0.3233
      7 N2         -1.5757    5.2427   -5.1701 N.2       1 <0>        -0.5734
      8 C5         -1.7159    6.1643   -6.0966 C.2       1 <0>         0.6567
      9 N3         -2.6702    5.9929   -7.0678 N.pl3     1 <0>        -0.8171
     10 N4         -0.2878    4.5971   -3.1350 N.pl3     1 <0>        -0.4561
     11 C6          0.7251    5.2479   -2.4921 C.2       1 <0>         0.2199
     12 N5          0.9911    6.3642   -3.1051 N.2       1 <0>        -0.4186
     13 C7         -0.8717    3.3095   -2.7511 C.3       1 <0>         0.3118
     14 H1         -1.9471    3.3134   -2.9284 H         1 <0>         0.1221
     15 C8         -0.2014    2.1598   -3.5354 C.3       1 <0>         0.0801
     16 H2          0.7970    2.4511   -3.8615 H         1 <0>         0.0869
     17 C9         -0.1214    1.0043   -2.5128 C.3       1 <0>         0.0465
     18 H3          0.9167    0.7244   -2.3333 H         1 <0>         0.0877
     19 C10        -0.7527    1.5927   -1.2315 C.3       1 <0>         0.0501
     20 H4         -1.8095    1.3316   -1.1749 H         1 <0>         0.0998
     21 O2         -0.5920    3.0218   -1.3637 O.3       1 <0>        -0.3445
     22 C11        -0.0127    1.0858    0.0080 C.3       1 <0>         0.0814
     23 O3         -0.6816    1.5467    1.1837 O.3       1 <0>        -0.5635
     24 O4         -0.8712   -0.1237   -2.9680 O.3       1 <0>        -0.5410
     25 O5         -1.0024    1.7814   -4.6567 O.3       1 <0>        -0.5270
     26 H5         -0.4987    8.0452   -8.0246 H         1 <0>         0.0819
     27 H6         -2.1803    8.2793   -7.4902 H         1 <0>         0.0842
     28 H7         -0.8781    9.2716   -6.7916 H         1 <0>         0.1023
     29 H8         -2.7858    6.6645   -7.7580 H         1 <0>         0.4160
     30 H9         -3.2292    5.2002   -7.0640 H         1 <0>         0.4288
     31 H10         1.2301    4.8899   -1.6072 H         1 <0>         0.2224
     32 H11         0.0021   -0.0041    0.0020 H         1 <0>         0.0667
     33 H12         1.0099    1.4631    0.0003 H         1 <0>         0.0619
     34 H13        -0.2663    1.2624    2.0094 H         1 <0>         0.3869
     35 H14        -0.9027   -0.8557   -2.3369 H         1 <0>         0.3882
     36 H15        -0.6566    1.0247   -5.1496 H         1 <0>         0.3905
@<TRIPOS>BOND
     1    1    2 1
     2    1   26 1
     3    1   27 1
     4    1   28 1
     5    2    8 1
     6    2    3 am
     7    3    4 2
     8    3    5 1
     9    5   12 1
    10    5    6 2
    11    6    7 1
    12    6   10 1
    13    7    8 2
    14    8    9 1
    15    9   29 1
    16    9   30 1
    17   10   11 1
    18   10   13 1
    19   11   12 2
    20   11   31 1
    21   13   14 1
    22   13   21 1
    23   13   15 1
    24   15   16 1
    25   15   17 1
    26   15   25 1
    27   17   18 1
    28   17   19 1
    29   17   24 1
    30   19   20 1
    31   19   21 1
    32   19   22 1
    33   22   23 1
    34   22   32 1
    35   22   33 1
    36   23   34 1
    37   24   35 1
    38   25   36 1
@<TRIPOS>MOLECULE
ZINC13783897
   32    34     0     0     0
SMALL
USER_CHARGES
8-bromo-9-[(2S,3S,4S,5S)-3,4-dihydroxy-5-(hydroxymethyl)tetrahydrofuran-2-yl]-3H-purine-2,6-dione
@<TRIPOS>ATOM
      1 C1          2.7643    2.6788    1.6451 C.3       1 <0>         0.0794
      2 C2          1.8356    1.5020    1.3396 C.3       1 <0>         0.0504
      3 H1          2.3769    0.5630    1.4559 H         1 <0>         0.1000
      4 C3          0.6221    1.5320    2.2889 C.3       1 <0>         0.0506
      5 H2          0.5807    0.6198    2.8841 H         1 <0>         0.1004
      6 C4         -0.5991    1.6164    1.3411 C.3       1 <0>         0.0718
      7 H3         -0.9379    2.6468    1.2341 H         1 <0>         0.1028
      8 C5         -0.0127    1.0858    0.0080 C.3       1 <0>         0.2937
      9 H4          0.0021   -0.0041    0.0020 H         1 <0>         0.1268
     10 O1          1.3315    1.6126   -0.0020 O.3       1 <0>        -0.3304
     11 N1         -0.7753    1.5961   -1.1341 N.pl3     1 <0>        -0.4297
     12 C6         -1.6278    0.8803   -1.9149 C.2       1 <0>         0.3050
     13 C7         -2.1236    1.7630   -2.8665 C.2       1 <0>        -0.0878
     14 C8         -3.0807    1.2566   -3.8512 C.2       1 <0>         0.6030
     15 O2         -3.5402    1.9904   -4.7072 O.2       1 <0>        -0.4717
     16 N2         -3.4332   -0.0461   -3.7966 N.am      1 <0>        -0.6547
     17 H5         -4.0798   -0.4105   -4.4668 H         1 <0>         0.4514
     18 C9         -2.9271   -0.8591   -2.8544 C.2       1 <0>         0.7266
     19 O3         -3.2756   -2.0240   -2.8357 O.2       1 <0>        -0.5254
     20 N3         -2.0490   -0.4296   -1.9310 N.am      1 <0>        -0.6179
     21 H6         -1.6979   -1.0698   -1.2478 H         1 <0>         0.4407
     22 N4         -1.5529    2.9705   -2.6357 N.2       1 <0>        -0.3592
     23 C10        -0.7543    2.8750   -1.6110 C.2       1 <0>         0.2185
     24 Br1         0.2746    4.2902   -0.8939 Br        1 <0>         0.1034
     25 O4         -1.6605    0.7775    1.8010 O.3       1 <0>        -0.5458
     26 O5          0.6781    2.6814    3.1361 O.3       1 <0>        -0.5462
     27 O6          3.9340    2.5869    0.8293 O.3       1 <0>        -0.5616
     28 H7          2.2467    3.6145    1.4339 H         1 <0>         0.0657
     29 H8          3.0515    2.6517    2.6963 H         1 <0>         0.0635
     30 H9         -2.0598    1.0684    2.6323 H         1 <0>         0.4007
     31 H10         1.4555    2.7091    3.7105 H         1 <0>         0.3892
     32 H11         4.5690    3.3024    0.9701 H         1 <0>         0.3866
@<TRIPOS>BOND
     1    1    2 1
     2    1   27 1
     3    1   28 1
     4    1   29 1
     5    2    3 1
     6    2   10 1
     7    2    4 1
     8    4    5 1
     9    4    6 1
    10    4   26 1
    11    6    7 1
    12    6    8 1
    13    6   25 1
    14    8    9 1
    15    8   10 1
    16    8   11 1
    17   11   23 1
    18   11   12 1
    19   12   20 1
    20   12   13 2
    21   13   14 1
    22   13   22 1
    23   14   15 2
    24   14   16 am
    25   16   17 1
    26   16   18 am
    27   18   19 2
    28   18   20 am
    29   20   21 1
    30   22   23 2
    31   23   24 1
    32   25   30 1
    33   26   31 1
    34   27   32 1
@<TRIPOS>MOLECULE
ZINC16928989
   40    42     0     0     0
SMALL
USER_CHARGES
2-amino-9-[(2S,3S,4S,5S)-3,4-dihydroxy-5-(hydroxymethyl)tetrahydrofuran-2-yl]-1,7-dimethyl-purine-6,8-dione
@<TRIPOS>ATOM
      1 C1          5.4138    3.9260   -3.7284 C.3       1 <0>         0.0989
      2 N1          4.5044    3.4754   -2.6719 N.am      1 <0>        -0.5003
      3 C2          4.4976    3.9202   -1.3475 C.2       1 <0>        -0.1616
      4 C3          3.4797    3.2352   -0.6954 C.2       1 <0>         0.3972
      5 N2          3.2493    3.4723    0.6013 N.2       1 <0>        -0.5553
      6 C4          3.9718    4.3438    1.2710 C.2       1 <0>         0.6527
      7 N3          4.9809    5.0412    0.6799 N.am      1 <0>        -0.5446
      8 C5          5.2638    4.8481   -0.6274 C.2       1 <0>         0.5783
      9 O1          6.1658    5.4670   -1.1690 O.2       1 <0>        -0.5363
     10 C6          5.7612    6.0029    1.4625 C.3       1 <0>         0.0478
     11 N4          3.7012    4.5561    2.5990 N.pl3     1 <0>        -0.8399
     12 N5          2.8969    2.3992   -1.6255 N.am      1 <0>        -0.5141
     13 C7          3.5297    2.5539   -2.8036 C.2       1 <0>         0.6781
     14 O2          3.2613    1.9565   -3.8294 O.2       1 <0>        -0.5311
     15 C8          1.7778    1.4885   -1.3714 C.3       1 <0>         0.3317
     16 H1          2.1662    0.4767   -1.5597 H         1 <0>         0.1139
     17 C9          0.5519    1.8931   -2.2198 C.3       1 <0>         0.0979
     18 H2          0.5934    2.9121   -2.6319 H         1 <0>         0.0871
     19 C10        -0.6531    1.6221   -1.2915 C.3       1 <0>         0.0688
     20 H3         -1.4292    0.9731   -1.7233 H         1 <0>         0.0894
     21 C11        -0.0127    1.0858    0.0080 C.3       1 <0>         0.0490
     22 H4          0.0254   -0.0119    0.0681 H         1 <0>         0.0924
     23 O3          1.3342    1.6070   -0.0021 O.3       1 <0>        -0.3185
     24 C12        -0.7738    1.6004    1.2315 C.3       1 <0>         0.0926
     25 O4         -0.2135    1.0297    2.4157 O.3       1 <0>        -0.5910
     26 O5         -1.3693    2.8317   -1.0345 O.3       1 <0>        -0.5895
     27 O6          0.4707    1.0885   -3.3979 O.3       1 <0>        -0.5727
     28 H5          6.1004    4.6837   -3.3227 H         1 <0>         0.1022
     29 H6          4.8307    4.3632   -4.5523 H         1 <0>         0.0731
     30 H7          5.9932    3.0694   -4.1034 H         1 <0>         0.0735
     31 H8          6.5253    6.4645    0.8198 H         1 <0>         0.1119
     32 H9          6.2510    5.4832    2.2991 H         1 <0>         0.0834
     33 H10         5.0931    6.7831    1.8562 H         1 <0>         0.0831
     34 H11         4.2967    5.2817    3.1725 H         1 <0>         0.4377
     35 H12         2.8887    4.0007    3.0904 H         1 <0>         0.4560
     36 H13        -0.6933    2.6964    1.2791 H         1 <0>         0.0625
     37 H14        -1.8328    1.3137    1.1519 H         1 <0>         0.0552
     38 H15        -0.6325    1.2844    3.4004 H         1 <0>         0.4116
     39 H16        -2.2596    2.8171   -0.3886 H         1 <0>         0.4107
     40 H17        -0.3475    1.2459   -4.1161 H         1 <0>         0.4182
@<TRIPOS>BOND
     1    1    2 1
     2    1   28 1
     3    1   29 1
     4    1   30 1
     5    2   13 am
     6    2    3 1
     7    3    8 1
     8    3    4 2
     9    4    5 1
    10    4   12 1
    11    5    6 2
    12    6    7 1
    13    6   11 1
    14    7    8 am
    15    7   10 1
    16    8    9 2
    17   10   31 1
    18   10   32 1
    19   10   33 1
    20   11   34 1
    21   11   35 1
    22   12   13 am
    23   12   15 1
    24   13   14 2
    25   15   16 1
    26   15   23 1
    27   15   17 1
    28   17   18 1
    29   17   19 1
    30   17   27 1
    31   19   20 1
    32   19   21 1
    33   19   26 1
    34   21   22 1
    35   21   23 1
    36   21   24 1
    37   24   25 1
    38   24   36 1
    39   24   37 1
    40   25   38 1
    41   26   39 1
    42   27   40 1
@<TRIPOS>MOLECULE
ZINC02048952
   39    41     0     0     0
SMALL
USER_CHARGES

@<TRIPOS>ATOM
      1 C1         -0.0173    1.4248    0.0099 C.3       1 <0>         0.0375
      2 O1          0.0021   -0.0041    0.0020 O.3       1 <0>        -0.3200
      3 C2         -1.2001   -0.6374    0.0101 C.ar      1 <0>         0.0797
      4 C3         -1.8052   -0.9621    1.2217 C.ar      1 <0>         0.1014
      5 C4         -3.0302   -1.6035    1.2336 C.ar      1 <0>        -0.0709
      6 C5         -3.6564   -1.9255    0.0293 C.ar      1 <0>        -0.1394
      7 C6         -3.0449   -1.6031   -1.1886 C.ar      1 <0>        -0.0675
      8 C7         -1.8255   -0.9543   -1.1931 C.ar      1 <0>         0.1309
      9 O2         -1.2330   -0.6290   -2.3733 O.3       1 <0>        -0.4616
     10 C8         -3.7233   -1.9726   -2.4752 C.3       1 <0>         0.1043
     11 H1         -3.3331   -2.9316   -2.8160 H         1 <0>         0.0909
     12 C9         -5.2305   -2.1069   -2.2451 C.3       1 <0>         0.0747
     13 H2         -5.6408   -1.1349   -1.9713 H         1 <0>         0.1041
     14 C10        -5.8834   -2.5832   -3.5418 C.3       1 <0>         0.1225
     15 H3         -5.4848   -3.5596   -3.8170 H         1 <0>         0.0857
     16 C11        -5.5630   -1.5643   -4.6434 C.3       1 <0>         0.0504
     17 H4         -5.9633   -1.9196   -5.5930 H         1 <0>         0.0842
     18 C12        -4.0484   -1.3896   -4.7638 C.3       1 <0>         0.0545
     19 H5         -3.8314   -0.6163   -5.5007 H         1 <0>         0.1277
     20 O3         -3.5082   -1.0006   -3.4942 O.3       1 <0>        -0.3107
     21 C13        -3.4199   -2.7099   -5.2141 C.3       1 <0>         0.0403
     22 O4         -2.0218   -2.5194   -5.4397 O.3       1 <0>        -0.5571
     23 O5         -6.1601   -0.3079   -4.3166 O.3       1 <0>        -0.5384
     24 O6         -7.2985   -2.6730   -3.3641 O.3       1 <0>        -0.5361
     25 O7         -5.4632   -3.0333   -1.1832 O.3       1 <0>        -0.3330
     26 C14        -4.9708   -2.6039    0.0251 C.2       1 <0>         0.5288
     27 O8         -5.5896   -2.7821    1.0555 O.2       1 <0>        -0.4271
     28 O9         -1.1908   -0.6486    2.3938 O.3       1 <0>        -0.4769
     29 H6          1.0053    1.8021    0.0021 H         1 <0>         0.1011
     30 H7         -0.5445    1.7859   -0.8732 H         1 <0>         0.0556
     31 H8         -0.5275    1.7763    0.9067 H         1 <0>         0.0447
     32 H9         -3.5007   -1.8549    2.1726 H         1 <0>         0.1578
     33 H10        -0.6495   -1.3162   -2.7230 H         1 <0>         0.3960
     34 H11        -3.5636   -3.4635   -4.4398 H         1 <0>         0.0536
     35 H12        -3.8949   -3.0422   -6.1372 H         1 <0>         0.0645
     36 H13        -1.5576   -3.3171   -5.7283 H         1 <0>         0.3841
     37 H14        -5.9988    0.3862   -4.9703 H         1 <0>         0.3849
     38 H15        -7.7756   -2.9703   -4.1509 H         1 <0>         0.3844
     39 H16        -1.4226    0.2248    2.7381 H         1 <0>         0.3944
@<TRIPOS>BOND
     1    1    2 1
     2    1   29 1
     3    1   30 1
     4    1   31 1
     5    2    3 1
     6    3    8 ar
     7    3    4 ar
     8    4    5 ar
     9    4   28 1
    10    5    6 ar
    11    5   32 1
    12    6   26 1
    13    6    7 ar
    14    7    8 ar
    15    7   10 1
    16    8    9 1
    17    9   33 1
    18   10   11 1
    19   10   20 1
    20   10   12 1
    21   12   13 1
    22   12   14 1
    23   12   25 1
    24   14   15 1
    25   14   16 1
    26   14   24 1
    27   16   17 1
    28   16   18 1
    29   16   23 1
    30   18   19 1
    31   18   20 1
    32   18   21 1
    33   21   22 1
    34   21   34 1
    35   21   35 1
    36   22   36 1
    37   23   37 1
    38   24   38 1
    39   25   26 1
    40   26   27 2
    41   28   39 1
@<TRIPOS>MOLECULE
ZINC05807388
   32    34     0     0     0
SMALL
USER_CHARGES

@<TRIPOS>ATOM
      1 C1         -0.0163    1.3508    0.0095 C.2       1 <0>         0.4118
      2 N1          1.0808    2.0566    0.0028 N.2       1 <0>        -0.5103
      3 C2          2.2854    1.4680   -0.0118 C.2       1 <0>         0.3382
      4 C3          2.3684    0.0829   -0.0200 C.2       1 <0>        -0.1020
      5 C4          1.1794   -0.6679   -0.0131 C.2       1 <0>         0.5676
      6 N2          0.0021   -0.0041    0.0020 N.am      1 <0>        -0.6285
      7 O1          1.2098   -1.8879   -0.0202 O.2       1 <0>        -0.5102
      8 N3          3.7222   -0.2451   -0.0347 N.pl3     1 <0>        -0.5256
      9 C5          4.4269    0.9038   -0.0352 C.2       1 <0>         0.4921
     10 N4          3.5778    1.9488   -0.0216 N.pl3     1 <0>        -0.4410
     11 C6          3.9631    3.3622   -0.0181 C.3       1 <0>         0.3145
     12 H1          3.0806    3.9956   -0.1082 H         1 <0>         0.1373
     13 C7          4.7412    3.7043    1.2718 C.3       1 <0>         0.0781
     14 H2          5.2054    2.8095    1.6865 H         1 <0>         0.1016
     15 C8          5.8201    4.7069    0.8047 C.3       1 <0>         0.0556
     16 H3          6.8176    4.3078    0.9885 H         1 <0>         0.0938
     17 C9          5.5662    4.8519   -0.7122 C.3       1 <0>         0.0552
     18 H4          4.9306    5.7151   -0.9097 H         1 <0>         0.0947
     19 O2          4.8886    3.6336   -1.0932 O.3       1 <0>        -0.3279
     20 C10         6.8921    4.9850   -1.4638 C.3       1 <0>         0.0820
     21 O3          6.6328    5.2342   -2.8468 O.3       1 <0>        -0.5654
     22 O4          5.6554    5.9634    1.4651 O.3       1 <0>        -0.5439
     23 O5          3.8747    4.3090    2.2337 O.3       1 <0>        -0.5400
     24 S1          6.1351    1.0169   -0.0500 S.2       1 <0>        -0.5508
     25 H5         -0.9677    1.8616    0.0259 H         1 <0>         0.2332
     26 H6          7.4648    5.8133   -1.0466 H         1 <0>         0.0632
     27 H7          7.4619    4.0614   -1.3617 H         1 <0>         0.0686
     28 H8          7.4301    5.3298   -3.3855 H         1 <0>         0.3848
     29 H9          6.3067    6.6307    1.2090 H         1 <0>         0.3869
     30 H10         4.3116    4.5445    3.0636 H         1 <0>         0.3940
     31 H11         4.0922   -1.1417   -0.0427 H         1 <0>         0.4556
     32 H12        -0.8321   -0.4990    0.0073 H         1 <0>         0.4367
@<TRIPOS>BOND
     1    1    6 1
     2    1    2 2
     3    1   25 1
     4    2    3 1
     5    3   10 1
     6    3    4 2
     7    4    5 1
     8    4    8 1
     9    5    6 am
    10    5    7 2
    11    6   32 1
    12    8    9 1
    13    8   31 1
    14    9   10 1
    15    9   24 2
    16   10   11 1
    17   11   12 1
    18   11   19 1
    19   11   13 1
    20   13   14 1
    21   13   15 1
    22   13   23 1
    23   15   16 1
    24   15   17 1
    25   15   22 1
    26   17   18 1
    27   17   19 1
    28   17   20 1
    29   20   21 1
    30   20   26 1
    31   20   27 1
    32   21   28 1
    33   22   29 1
    34   23   30 1
@<TRIPOS>MOLECULE
ZINC13425162
   30    31     0     0     0
SMALL
USER_CHARGES
4-amino-5-bromo-1-[(2R,3S,4S,5R)-3,4-dihydroxy-5-(hydroxymethyl)tetrahydrofuran-2-yl]pyrimidin-2-one
@<TRIPOS>ATOM
      1 C1         -1.2347    3.2240    0.0303 C.2       1 <0>         0.2366
      2 C2         -0.0728    3.9203    0.0229 C.2       1 <0>        -0.2978
      3 C3          1.1475    3.2127    0.0079 C.2       1 <0>         0.4854
      4 N1          1.1362    1.8863    0.0013 N.2       1 <0>        -0.5550
      5 C4         -0.0145    1.2157    0.0087 C.2       1 <0>         0.6581
      6 O1          0.0021   -0.0041    0.0020 O.2       1 <0>        -0.4710
      7 N2         -1.1951    1.8614    0.0179 N.am      1 <0>        -0.5105
      8 C5         -2.4442    1.0960    0.0202 C.3       1 <0>         0.2947
      9 H1         -3.2980    1.7648    0.1293 H         1 <0>         0.1237
     10 C6         -2.5710    0.2697   -1.2789 C.3       1 <0>         0.0785
     11 H2         -3.2098    0.7834   -1.9974 H         1 <0>         0.0940
     12 C7         -3.2251   -1.0539   -0.8175 C.3       1 <0>         0.0500
     13 H3         -2.5651   -1.8978   -1.0181 H         1 <0>         0.0931
     14 C8         -3.4182   -0.8674    0.7038 C.3       1 <0>         0.0537
     15 H4         -4.4225   -0.5009    0.9167 H         1 <0>         0.0933
     16 O2         -2.4326    0.1179    1.0828 O.3       1 <0>        -0.3359
     17 C9         -3.1656   -2.1843    1.4406 C.3       1 <0>         0.0823
     18 O3         -3.3925   -1.9987    2.8392 O.3       1 <0>        -0.5647
     19 O4         -4.4861   -1.2418   -1.4630 O.3       1 <0>        -0.5534
     20 O5         -1.2814    0.0207   -1.8418 O.3       1 <0>        -0.5223
     21 N3          2.3424    3.8945   -0.0003 N.pl3     1 <0>        -0.7498
     22 Br1        -0.0864    5.8112    0.0332 Br        1 <0>        -0.0064
     23 H5         -2.1819    3.7426    0.0417 H         1 <0>         0.1825
     24 H6         -3.8433   -2.9489    1.0608 H         1 <0>         0.0633
     25 H7         -2.1348   -2.4994    1.2784 H         1 <0>         0.0639
     26 H8         -3.2506   -2.7947    3.3697 H         1 <0>         0.3854
     27 H9         -4.9669   -2.0266   -1.1662 H         1 <0>         0.3884
     28 H10        -1.3021   -0.4947   -2.6598 H         1 <0>         0.3814
     29 H11         2.8735    3.6461    0.8098 H         1 <0>         0.3774
     30 H12         2.3475    4.8645    0.0046 H         1 <0>         0.3810
@<TRIPOS>BOND
     1    1    7 1
     2    1    2 2
     3    1   23 1
     4    2    3 1
     5    2   22 1
     6    3    4 2
     7    3   21 1
     8    4    5 1
     9    5    6 2
    10    5    7 am
    11    7    8 1
    12    8    9 1
    13    8   16 1
    14    8   10 1
    15   10   11 1
    16   10   12 1
    17   10   20 1
    18   12   13 1
    19   12   14 1
    20   12   19 1
    21   14   15 1
    22   14   16 1
    23   14   17 1
    24   17   18 1
    25   17   24 1
    26   17   25 1
    27   18   26 1
    28   19   27 1
    29   20   28 1
    30   21   29 1
    31   21   30 1
@<TRIPOS>MOLECULE
ZINC22063759
   36    38     0     0     0
SMALL
USER_CHARGES
2-amino-9-[(2R,3R,4R,5R)-3,4-dihydroxy-5-(hydroxymethyl)tetrahydrofuran-2-yl]-1-methyl-purine-6-thione
@<TRIPOS>ATOM
      1 C1          3.8097    4.4796   -0.0107 C.3       1 <0>         0.0221
      2 N1          3.1795    3.1571   -0.0113 N.pl3     1 <0>        -0.4892
      3 C2          1.8321    3.0546    0.0010 C.2       1 <0>         0.3785
      4 S1          0.8461    4.4541    0.0185 S.2       1 <0>        -0.5398
      5 C3          1.2567    1.7632   -0.0005 C.2       1 <0>        -0.0726
      6 C4          2.1065    0.6511   -0.0146 C.2       1 <0>         0.3313
      7 N2          3.4330    0.8303   -0.0263 N.2       1 <0>        -0.5640
      8 C5          3.9553    2.0364   -0.0248 C.2       1 <0>         0.6426
      9 N3          5.3209    2.1713   -0.0366 N.pl3     1 <0>        -0.8371
     10 N4          1.2921   -0.4491   -0.0127 N.pl3     1 <0>        -0.4626
     11 C6          0.0021   -0.0041    0.0020 C.2       1 <0>         0.2558
     12 N5         -0.0156    1.2971    0.0092 N.2       1 <0>        -0.4173
     13 C7          1.7260   -1.8483   -0.0239 C.3       1 <0>         0.3190
     14 H1          2.5921   -1.9175   -0.6985 H         1 <0>         0.1234
     15 C8          2.0151   -2.3188    1.4147 C.3       1 <0>         0.0965
     16 H2          1.9314   -1.5308    2.1776 H         1 <0>         0.0900
     17 C9          1.0627   -3.5220    1.6191 C.3       1 <0>         0.0677
     18 H3          1.4327   -4.3199    2.2798 H         1 <0>         0.0935
     19 C10         0.7504   -3.9404    0.1598 C.3       1 <0>         0.0537
     20 H4          1.5072   -4.5862   -0.3095 H         1 <0>         0.1008
     21 O1          0.6759   -2.6815   -0.5430 O.3       1 <0>        -0.3464
     22 C11        -0.5876   -4.6788    0.0856 C.3       1 <0>         0.0849
     23 O2         -0.7961   -5.1543   -1.2458 O.3       1 <0>        -0.5945
     24 O3         -0.1276   -3.1202    2.3002 O.3       1 <0>        -0.5875
     25 O4          3.3780   -2.7291    1.5424 O.3       1 <0>        -0.5803
     26 H5          3.0312    5.2567    0.0010 H         1 <0>         0.1412
     27 H6          4.4266    4.5922   -0.9144 H         1 <0>         0.0918
     28 H7          4.4444    4.5829    0.8817 H         1 <0>         0.0916
     29 H8          5.9618    1.2774   -0.0476 H         1 <0>         0.4569
     30 H9          5.7746    3.1734   -0.0351 H         1 <0>         0.4422
     31 H10        -0.8730   -0.6370    0.0073 H         1 <0>         0.2260
     32 H11        -0.5754   -5.5306    0.7815 H         1 <0>         0.0611
     33 H12        -1.4013   -3.9919    0.3613 H         1 <0>         0.0617
     34 H13        -1.7108   -5.7129   -1.4934 H         1 <0>         0.4176
     35 H14        -0.9100   -3.8605    2.5235 H         1 <0>         0.4170
     36 H15         3.7539   -3.0953    2.5092 H         1 <0>         0.4243
@<TRIPOS>BOND
     1    1    2 1
     2    1   26 1
     3    1   27 1
     4    1   28 1
     5    2    8 1
     6    2    3 1
     7    3    4 2
     8    3    5 1
     9    5   12 1
    10    5    6 2
    11    6    7 1
    12    6   10 1
    13    7    8 2
    14    8    9 1
    15    9   29 1
    16    9   30 1
    17   10   11 1
    18   10   13 1
    19   11   12 2
    20   11   31 1
    21   13   14 1
    22   13   21 1
    23   13   15 1
    24   15   16 1
    25   15   17 1
    26   15   25 1
    27   17   18 1
    28   17   19 1
    29   17   24 1
    30   19   20 1
    31   19   21 1
    32   19   22 1
    33   22   23 1
    34   22   32 1
    35   22   33 1
    36   23   34 1
    37   24   35 1
    38   25   36 1
@<TRIPOS>MOLECULE
ZINC36375376
   53    55     0     0     0
SMALL
USER_CHARGES

@<TRIPOS>ATOM
      1 C1         -0.0167    1.3828    0.0096 C.ar      1 <0>        -0.1100
      2 C2          1.1700    2.0896    0.0021 C.ar      1 <0>        -0.1283
      3 C3          2.3804    1.4126   -0.0131 C.ar      1 <0>         0.1143
      4 C4          2.3992    0.0257   -0.0203 C.ar      1 <0>        -0.1638
      5 C5          1.2125   -0.6811   -0.0118 C.ar      1 <0>        -0.1064
      6 C6          0.0021   -0.0041    0.0020 C.ar      1 <0>         0.0740
      7 O1         -1.1662   -0.6999    0.0099 O.3       1 <0>        -0.4973
      8 O2          3.5486    2.1084   -0.0214 O.3       1 <0>        -0.2939
      9 C7          4.7575    1.3465   -0.0370 C.3       1 <0>         0.2289
     10 H1          4.7424    0.6581   -0.8819 H         1 <0>         0.0798
     11 C8          5.9548    2.2913   -0.1697 C.3       1 <0>         0.0779
     12 H2          5.9475    3.0063    0.6531 H         1 <0>         0.0900
     13 C9          7.2487    1.4727   -0.1251 C.3       1 <0>         0.1086
     14 H3          7.2790    0.7921   -0.9760 H         1 <0>         0.1049
     15 C10         7.2855    0.6669    1.1771 C.3       1 <0>         0.0866
     16 H4          7.3051    1.3490    2.0271 H         1 <0>         0.0892
     17 C11         6.0368   -0.2151    1.2577 C.3       1 <0>         0.0688
     18 H5          6.0385   -0.9242    0.4299 H         1 <0>         0.0858
     19 O3          4.8694    0.6054    1.1797 O.3       1 <0>        -0.3710
     20 C12         6.0363   -0.9788    2.5835 C.3       1 <0>         0.0839
     21 O4          4.9340   -1.8878    2.6092 O.3       1 <0>        -0.5596
     22 O5          8.4543   -0.1549    1.1972 O.3       1 <0>        -0.5428
     23 O6          8.3732    2.3529   -0.1766 O.3       1 <0>        -0.3249
     24 C13         8.8531    2.6618   -1.3978 C.2       1 <0>         0.4985
     25 O7          8.3308    2.1965   -2.3916 O.2       1 <0>        -0.4817
     26 C14        10.0079    3.5614   -1.5274 C.2       1 <0>        -0.1612
     27 C15        10.4817    3.8664   -2.7331 C.2       1 <0>        -0.0869
     28 C16        11.6659    4.7889   -2.8661 C.3       1 <0>         0.2109
     29 C17        11.2355    6.0233   -3.5935 C.2       1 <0>        -0.1153
     30 C18        11.5376    6.2563   -4.8639 C.2       1 <0>        -0.1867
     31 C19        12.3450    5.2720   -5.6086 C.2       1 <0>         0.3996
     32 O8         12.3942    5.2896   -6.8243 O.2       1 <0>        -0.4353
     33 C20        13.0912    4.2660   -4.8298 C.2       1 <0>        -0.1927
     34 C21        12.7711    4.0569   -3.5598 C.2       1 <0>        -0.0683
     35 O9         12.1089    5.1589   -1.5588 O.3       1 <0>        -0.5346
     36 O10         5.8744    2.9925   -1.4123 O.3       1 <0>        -0.5371
     37 H6         -0.9592    1.9099    0.0260 H         1 <0>         0.1376
     38 H7          1.1553    3.1695    0.0077 H         1 <0>         0.1364
     39 H8          3.3417   -0.5015   -0.0329 H         1 <0>         0.1343
     40 H9          1.2271   -1.7610   -0.0182 H         1 <0>         0.1326
     41 H10        -1.5129   -0.8965   -0.8712 H         1 <0>         0.3891
     42 H11         6.9684   -1.5350    2.6828 H         1 <0>         0.0689
     43 H12         5.9446   -0.2731    3.4092 H         1 <0>         0.0638
     44 H13         4.8712   -2.4070    3.4226 H         1 <0>         0.3876
     45 H14         8.5423   -0.6941    1.9952 H         1 <0>         0.3871
     46 H15        10.4721    3.9749   -0.6443 H         1 <0>         0.1505
     47 H16        10.0175    3.4529   -3.6162 H         1 <0>         0.1433
     48 H17        10.6522    6.7589   -3.0596 H         1 <0>         0.1385
     49 H18        11.1950    7.1585   -5.3488 H         1 <0>         0.1498
     50 H19        13.8911    3.7046   -5.2895 H         1 <0>         0.1535
     51 H20        13.3342    3.3244   -3.0006 H         1 <0>         0.1419
     52 H21        11.4399    5.6169   -1.0318 H         1 <0>         0.3884
     53 H22         5.0759    3.5290   -1.5102 H         1 <0>         0.3925
@<TRIPOS>BOND
     1    1    6 ar
     2    1    2 ar
     3    1   37 1
     4    2    3 ar
     5    2   38 1
     6    3    4 ar
     7    3    8 1
     8    4    5 ar
     9    4   39 1
    10    5    6 ar
    11    5   40 1
    12    6    7 1
    13    7   41 1
    14    8    9 1
    15    9   10 1
    16    9   19 1
    17    9   11 1
    18   11   12 1
    19   11   13 1
    20   11   36 1
    21   13   14 1
    22   13   15 1
    23   13   23 1
    24   15   16 1
    25   15   17 1
    26   15   22 1
    27   17   18 1
    28   17   19 1
    29   17   20 1
    30   20   21 1
    31   20   42 1
    32   20   43 1
    33   21   44 1
    34   22   45 1
    35   23   24 1
    36   24   25 2
    37   24   26 1
    38   26   27 2
    39   26   46 1
    40   27   28 1
    41   27   47 1
    42   28   34 1
    43   28   29 1
    44   28   35 1
    45   29   30 2
    46   29   48 1
    47   30   31 1
    48   30   49 1
    49   31   32 2
    50   31   33 1
    51   33   34 2
    52   33   50 1
    53   34   51 1
    54   35   52 1
    55   36   53 1
@<TRIPOS>MOLECULE
ZINC43465455
   51    54     0     0     0
SMALL
USER_CHARGES

@<TRIPOS>ATOM
      1 C1         -0.0167    1.3779    0.0096 C.ar      1 <0>        -0.0850
      2 C2          1.1696    2.0886    0.0021 C.ar      1 <0>        -0.1273
      3 C3          2.3802    1.4154   -0.0130 C.ar      1 <0>         0.0955
      4 C4          2.3990    0.0236   -0.0206 C.ar      1 <0>         0.0848
      5 C5          1.2071   -0.6822   -0.0130 C.ar      1 <0>        -0.1034
      6 C6          0.0021   -0.0041    0.0020 C.ar      1 <0>        -0.0933
      7 C7         -1.2936   -0.7736    0.0102 C.3       1 <0>         0.0740
      8 H1         -1.1312   -1.7864   -0.3585 H         1 <0>         0.1477
      9 C8         -1.8684   -0.8135    1.4102 C.2       1 <0>         0.4018
     10 O1         -1.3657   -1.2920    2.4054 O.2       1 <0>        -0.4102
     11 C9         -3.1705   -0.1430    1.2949 C.ar      1 <0>        -0.2956
     12 C10        -4.1660    0.1299    2.2420 C.ar      1 <0>         0.0271
     13 C11        -5.3064    0.7803    1.8684 C.ar      1 <0>        -0.2137
     14 C12        -5.4854    1.1750    0.5459 C.ar      1 <0>         0.1823
     15 C13        -4.5090    0.9126   -0.4062 C.ar      1 <0>         0.0447
     16 C14        -3.3386    0.2496   -0.0419 C.ar      1 <0>         0.1678
     17 O2         -2.2677   -0.1068   -0.7940 O.3       1 <0>        -0.2522
     18 O3         -4.6956    1.3030   -1.6966 O.3       1 <0>        -0.4713
     19 O4         -6.6234    1.8209    0.1837 O.3       1 <0>        -0.2756
     20 C15        -7.5884    2.0600    1.2101 C.3       1 <0>         0.2184
     21 H2         -7.7812    1.1333    1.7507 H         1 <0>         0.0809
     22 C16        -8.8896    2.5637    0.5801 C.3       1 <0>         0.0623
     23 H3         -9.2970    1.7959   -0.0776 H         1 <0>         0.0841
     24 C17        -9.8983    2.8747    1.6902 C.3       1 <0>         0.0834
     25 H4        -10.1359    1.9602    2.2336 H         1 <0>         0.0846
     26 C18        -9.2839    3.8969    2.6514 C.3       1 <0>         0.0896
     27 H5         -9.0921    4.8284    2.1188 H         1 <0>         0.0883
     28 C19        -7.9675    3.3417    3.2014 C.3       1 <0>         0.1126
     29 H6         -8.1653    2.4319    3.7682 H         1 <0>         0.0806
     30 O5         -7.0867    3.0447    2.1160 O.3       1 <0>        -0.3665
     31 C20        -7.3177    4.3817    4.1163 C.3       1 <0>         0.0903
     32 O6         -6.1503    3.8214    4.7206 O.3       1 <0>        -0.5673
     33 O7        -10.1884    4.1414    3.7305 O.3       1 <0>        -0.5555
     34 O8        -11.0908    3.4129    1.1155 O.3       1 <0>        -0.5448
     35 O9         -8.6275    3.7487   -0.1743 O.3       1 <0>        -0.5358
     36 O10         3.5850   -0.6417   -0.0359 O.3       1 <0>        -0.4842
     37 O11         3.5476    2.1129   -0.0209 O.3       1 <0>        -0.4860
     38 H7         -0.9598    1.9038    0.0259 H         1 <0>         0.1300
     39 H8          1.1522    3.1684    0.0077 H         1 <0>         0.1403
     40 H9          1.2190   -1.7621   -0.0189 H         1 <0>         0.1410
     41 H10        -4.0310   -0.1750    3.2692 H         1 <0>         0.1437
     42 H11        -6.0720    0.9889    2.6010 H         1 <0>         0.1473
     43 H12        -4.3663    2.1914   -1.8903 H         1 <0>         0.3876
     44 H13        -7.0387    5.2574    3.5302 H         1 <0>         0.0581
     45 H14        -8.0241    4.6743    4.8931 H         1 <0>         0.0786
     46 H15        -5.6861    4.4265    5.3151 H         1 <0>         0.3855
     47 H16       -11.0462    4.4909    3.4531 H         1 <0>         0.3948
     48 H17       -11.5291    2.8190    0.4908 H         1 <0>         0.3883
     49 H18        -7.9923    3.6250   -0.8928 H         1 <0>         0.3893
     50 H19         3.9367   -0.8389    0.8430 H         1 <0>         0.3908
     51 H20         3.8938    2.3101    0.8602 H         1 <0>         0.3915
@<TRIPOS>BOND
     1    1    6 ar
     2    1    2 ar
     3    1   38 1
     4    2    3 ar
     5    2   39 1
     6    3    4 ar
     7    3   37 1
     8    4    5 ar
     9    4   36 1
    10    5    6 ar
    11    5   40 1
    12    6    7 1
    13    7    8 1
    14    7   17 1
    15    7    9 1
    16    9   10 2
    17    9   11 1
    18   11   16 ar
    19   11   12 ar
    20   12   13 ar
    21   12   41 1
    22   13   14 ar
    23   13   42 1
    24   14   15 ar
    25   14   19 1
    26   15   16 ar
    27   15   18 1
    28   16   17 1
    29   18   43 1
    30   19   20 1
    31   20   21 1
    32   20   30 1
    33   20   22 1
    34   22   23 1
    35   22   24 1
    36   22   35 1
    37   24   25 1
    38   24   26 1
    39   24   34 1
    40   26   27 1
    41   26   28 1
    42   26   33 1
    43   28   29 1
    44   28   30 1
    45   28   31 1
    46   31   32 1
    47   31   44 1
    48   31   45 1
    49   32   46 1
    50   33   47 1
    51   34   48 1
    52   35   49 1
    53   36   50 1
    54   37   51 1
@<TRIPOS>MOLECULE
ZINC17044138
   30    31     0     0     0
SMALL
USER_CHARGES

@<TRIPOS>ATOM
      1 C1          1.1098   -0.5381    0.5899 C.2       1 <0>         0.2505
      2 C2          2.2696    0.1611    0.5750 C.2       1 <0>        -0.3039
      3 C3          2.2972    1.4250   -0.0502 C.2       1 <0>         0.5302
      4 N1          1.1938    1.9042   -0.6094 N.2       1 <0>        -0.5997
      5 C4          0.0607    1.2046   -0.5866 C.2       1 <0>         0.6733
      6 O1         -0.9405    1.6672   -1.1078 O.2       1 <0>        -0.5307
      7 N2          0.0021   -0.0041    0.0020 N.am      1 <0>        -0.5226
      8 C5         -1.2588   -0.7500    0.0105 C.3       1 <0>         0.2946
      9 H1         -2.0885   -0.0727    0.2128 H         1 <0>         0.1525
     10 C6         -1.4672   -1.4423   -1.3503 C.3       1 <0>         0.0818
     11 H2         -2.4199   -1.1443   -1.7880 H         1 <0>         0.1074
     12 C7         -1.4759   -2.9526   -1.0103 C.3       1 <0>         0.0488
     13 H3         -0.9238   -3.5227   -1.7574 H         1 <0>         0.0941
     14 C8         -0.7472   -2.9817    0.3574 C.3       1 <0>         0.0320
     15 H4          0.3333   -2.9504    0.2173 H         1 <0>         0.0921
     16 O2         -1.2115   -1.7783    1.0138 O.3       1 <0>        -0.3366
     17 C9         -1.1495   -4.2233    1.1559 C.3       1 <0>         0.0793
     18 O3         -0.3792   -4.2869    2.3578 O.3       1 <0>        -0.5639
     19 O4         -2.8136   -3.4398   -0.8866 O.3       1 <0>        -0.5421
     20 O5         -0.3915   -1.1332   -2.2387 O.3       1 <0>        -0.5393
     21 N3          3.4617    2.1570   -0.0797 N.pl3     1 <0>        -0.8111
     22 I1          3.9956   -0.6223    1.4674 I         1 <0>         0.0026
     23 H5          1.0642   -1.5101    1.0585 H         1 <0>         0.1776
     24 H6         -2.2089   -4.1669    1.4059 H         1 <0>         0.0690
     25 H7         -0.9642   -5.1156    0.5580 H         1 <0>         0.0665
     26 H8         -0.5819   -5.0508    2.9149 H         1 <0>         0.3885
     27 H9         -2.8712   -4.3814   -0.6741 H         1 <0>         0.3863
     28 H10        -0.4715   -1.5432   -3.1109 H         1 <0>         0.3915
     29 H11         4.2669    1.8041    0.3303 H         1 <0>         0.4136
     30 H12         3.4776    3.0260   -0.5104 H         1 <0>         0.4178
@<TRIPOS>BOND
     1    1    7 1
     2    1    2 2
     3    1   23 1
     4    2    3 1
     5    2   22 1
     6    3    4 2
     7    3   21 1
     8    4    5 1
     9    5    6 2
    10    5    7 am
    11    7    8 1
    12    8    9 1
    13    8   16 1
    14    8   10 1
    15   10   11 1
    16   10   12 1
    17   10   20 1
    18   12   13 1
    19   12   14 1
    20   12   19 1
    21   14   15 1
    22   14   16 1
    23   14   17 1
    24   17   18 1
    25   17   24 1
    26   17   25 1
    27   18   26 1
    28   19   27 1
    29   20   28 1
    30   21   29 1
    31   21   30 1
@<TRIPOS>MOLECULE
ZINC05487638
   36    38     0     0     0
SMALL
USER_CHARGES
(2R,3S,4R,5R)-2-(4-aminopyrrolo[2,3-d]pyrimidin-7-yl)-5-(methylsulfanylmethyl)tetrahydrofuran-3,4-diol
@<TRIPOS>ATOM
      1 C1          0.3719    8.0772   -0.4849 C.3       1 <0>        -0.1247
      2 S1          0.5878    6.2775   -0.5552 S.3       1 <0>        -0.2387
      3 C2         -0.4384    5.6589    0.8067 C.3       1 <0>        -0.0852
      4 C3         -0.3465    4.1326    0.8620 C.3       1 <0>         0.0836
      5 H1          0.6900    3.8182    0.9834 H         1 <0>         0.1060
      6 C4         -1.2139    3.5831    2.0161 C.3       1 <0>         0.0485
      7 H2         -2.0087    4.2863    2.2648 H         1 <0>         0.0846
      8 C5         -1.8071    2.2738    1.4494 C.3       1 <0>         0.0372
      9 H3         -2.8952    2.3297    1.4180 H         1 <0>         0.0941
     10 C6         -1.2280    2.1872    0.0199 C.3       1 <0>         0.3065
     11 H4         -1.9699    1.7782   -0.6659 H         1 <0>         0.1430
     12 O1         -0.9116    3.5513   -0.3333 O.3       1 <0>        -0.3276
     13 N1         -0.0165    1.3635    0.0095 N.pl3     1 <0>        -0.4574
     14 C7          1.2651    1.8505   -0.0043 C.2       1 <0>         0.0417
     15 C8          2.1392    0.8310   -0.0168 C.2       1 <0>        -0.1625
     16 C9          1.3522   -0.4007   -0.0104 C.ar      1 <0>        -0.2668
     17 C10         0.0021   -0.0041    0.0062 C.ar      1 <0>         0.3726
     18 N2         -0.9385   -0.9472    0.0150 N.ar      1 <0>        -0.5617
     19 C11        -0.6121   -2.2216    0.0091 C.ar      1 <0>         0.3575
     20 N3          0.6414   -2.6374   -0.0065 N.ar      1 <0>        -0.6056
     21 C12         1.6509   -1.7716   -0.0166 C.ar      1 <0>         0.4896
     22 N4          2.9622   -2.2115   -0.0333 N.pl3     1 <0>        -0.8305
     23 O2         -1.3844    1.1537    2.2297 O.3       1 <0>        -0.5212
     24 O3         -0.4067    3.3116    3.1636 O.3       1 <0>        -0.5369
     25 H5          0.9583    8.5447   -1.2759 H         1 <0>         0.1056
     26 H6         -0.6815    8.3224   -0.6203 H         1 <0>         0.0780
     27 H7          0.7092    8.4461    0.4838 H         1 <0>         0.0774
     28 H8         -1.4748    5.9548    0.6442 H         1 <0>         0.0925
     29 H9         -0.0841    6.0785    1.7482 H         1 <0>         0.1025
     30 H10         1.5317    2.8970   -0.0053 H         1 <0>         0.1735
     31 H11         3.2165    0.9066   -0.0295 H         1 <0>         0.1487
     32 H12        -1.4019   -2.9582    0.0173 H         1 <0>         0.1956
     33 H13         3.6891   -1.5694   -0.0409 H         1 <0>         0.4114
     34 H14         3.1548   -3.1622   -0.0375 H         1 <0>         0.4079
     35 H15        -1.7194    1.1574    3.1368 H         1 <0>         0.3783
     36 H16        -0.8899    2.9087    3.8980 H         1 <0>         0.3825
@<TRIPOS>BOND
     1    1    2 1
     2    1   25 1
     3    1   26 1
     4    1   27 1
     5    2    3 1
     6    3    4 1
     7    3   28 1
     8    3   29 1
     9    4    5 1
    10    4   12 1
    11    4    6 1
    12    6    7 1
    13    6    8 1
    14    6   24 1
    15    8    9 1
    16    8   10 1
    17    8   23 1
    18   10   11 1
    19   10   12 1
    20   10   13 1
    21   13   17 1
    22   13   14 1
    23   14   15 2
    24   14   30 1
    25   15   16 1
    26   15   31 1
    27   16   21 ar
    28   16   17 ar
    29   17   18 ar
    30   18   19 ar
    31   19   20 ar
    32   19   32 1
    33   20   21 ar
    34   21   22 1
    35   22   33 1
    36   22   34 1
    37   23   35 1
    38   24   36 1
@<TRIPOS>MOLECULE
ZINC36283904
   37    38     0     0     0
SMALL
USER_CHARGES

@<TRIPOS>ATOM
      1 C1         -2.9418    0.1277    0.0981 C.3       1 <0>         0.0892
      2 N1         -2.2208   -1.1052    0.4242 N.am      1 <0>        -0.7226
      3 C2         -2.5910   -2.2718   -0.1403 C.2       1 <0>         0.5899
      4 O1         -3.5785   -2.3180   -0.8500 O.2       1 <0>        -0.5437
      5 C3         -1.8037   -3.4856    0.1009 C.2       1 <0>        -0.0562
      6 C4         -0.7258   -3.6020    0.9525 C.2       1 <0>        -0.0441
      7 C5         -0.2812   -4.9255    0.8741 C.2       1 <0>        -0.7479
      8 C6         -1.0777   -5.5800   -0.0045 C.2       1 <0>         0.1411
      9 N2         -2.0103   -4.7176   -0.4774 N.pl3     1 <0>        -0.3974
     10 C7         -3.0614   -5.0419   -1.4449 C.3       1 <0>         0.0587
     11 S1          1.0747   -5.6186    1.7605 S.o2      1 <0>         2.7160
     12 O2          1.5968   -6.6639    0.9518 O.2       1 <0>        -0.9632
     13 O3          1.8706   -4.5279    2.2032 O.2       1 <0>        -0.9517
     14 N3          0.4563   -6.3354    3.1193 N.pl3     1 <0>        -1.0580
     15 C8         -0.1851   -5.5577    4.0908 C.ar      1 <0>         0.0625
     16 C9          0.5629   -4.7596    4.9463 C.ar      1 <0>        -0.0522
     17 C10        -0.0697   -3.9929    5.9048 C.ar      1 <0>        -0.1911
     18 C11        -1.4539   -4.0195    6.0129 C.ar      1 <0>         0.2252
     19 C12        -2.2019   -4.8172    5.1571 C.ar      1 <0>        -0.1941
     20 C13        -1.5696   -5.5799    4.1951 C.ar      1 <0>        -0.0577
     21 N4         -2.0952   -3.2425    6.9849 N.pl3     1 <0>        -0.8768
     22 H1         -3.9898    0.0206    0.3780 H         1 <0>         0.0636
     23 H2         -2.5027    0.9612    0.6463 H         1 <0>         0.0813
     24 H3         -2.8694    0.3185   -0.9726 H         1 <0>         0.0628
     25 H4         -1.4769   -1.0820    1.0463 H         1 <0>         0.4064
     26 H5         -0.3039   -2.8185    1.5646 H         1 <0>         0.1590
     27 H6         -0.9868   -6.6202   -0.2805 H         1 <0>         0.1889
     28 H7         -2.7290   -4.7708   -2.4470 H         1 <0>         0.0845
     29 H8         -3.2714   -6.1109   -1.4086 H         1 <0>         0.0917
     30 H9         -3.9658   -4.4854   -1.1991 H         1 <0>         0.1064
     31 H10         0.5385   -7.2941    3.2421 H         1 <0>         0.4209
     32 H11         1.6394   -4.7389    4.8622 H         1 <0>         0.1344
     33 H12         0.5121   -3.3727    6.5706 H         1 <0>         0.1268
     34 H13        -3.2784   -4.8379    5.2411 H         1 <0>         0.1232
     35 H14        -2.1516   -6.1972    3.5268 H         1 <0>         0.1248
     36 H15        -1.5726   -2.6855    7.5830 H         1 <0>         0.4001
     37 H16        -3.0621   -3.2611    7.0604 H         1 <0>         0.3993
@<TRIPOS>BOND
     1    1    2 1
     2    1   22 1
     3    1   23 1
     4    1   24 1
     5    2    3 am
     6    2   25 1
     7    3    4 2
     8    3    5 1
     9    5    9 1
    10    5    6 2
    11    6    7 1
    12    6   26 1
    13    7    8 2
    14    7   11 1
    15    8    9 1
    16    8   27 1
    17    9   10 1
    18   10   28 1
    19   10   29 1
    20   10   30 1
    21   11   12 2
    22   11   13 2
    23   11   14 1
    24   14   15 1
    25   14   31 1
    26   15   20 ar
    27   15   16 ar
    28   16   17 ar
    29   16   32 1
    30   17   18 ar
    31   17   33 1
    32   18   19 ar
    33   18   21 1
    34   19   20 ar
    35   19   34 1
    36   20   35 1
    37   21   36 1
    38   21   37 1
@<TRIPOS>MOLECULE
ZINC37934306
   37    38     0     0     0
SMALL
USER_CHARGES

@<TRIPOS>ATOM
      1 C1          0.2894    1.4321    0.0325 C.3       1 <0>         0.0805
      2 N1          0.0021   -0.0041    0.0020 N.pl3     1 <0>        -0.6160
      3 C2         -0.2268   -0.6959    1.1935 C.ar      1 <0>         0.2422
      4 C3         -0.1271   -0.0358    2.4103 C.ar      1 <0>        -0.2188
      5 C4         -0.3552   -0.7269    3.5917 C.ar      1 <0>         0.2452
      6 C5         -0.6826   -2.0771    3.5531 C.ar      1 <0>        -0.1491
      7 C6         -0.7811   -2.7311    2.3404 C.ar      1 <0>        -0.5762
      8 C7         -0.5602   -2.0445    1.1617 C.ar      1 <0>        -0.1589
      9 S1         -1.1965   -4.4428    2.2959 S.o2      1 <0>         2.6989
     10 O1         -0.6911   -4.9516    1.0691 O.2       1 <0>        -0.9619
     11 O2         -0.8243   -4.9839    3.5560 O.2       1 <0>        -0.9617
     12 N2         -2.8469   -4.5440    2.2062 N.pl3     1 <0>        -1.2494
     13 N3         -0.2554   -0.0665    4.8184 N.pl3     1 <0>        -0.8721
     14 C8         -0.0452   -0.7146   -1.2783 C.3       1 <0>         0.1451
     15 H1         -0.1659   -1.7823   -1.0952 H         1 <0>         0.1181
     16 C9         -1.2363   -0.2004   -2.1038 C.3       1 <0>        -0.1456
     17 C10        -1.0826   -0.7306   -3.5580 C.3       1 <0>        -0.5732
     18 S2          0.7305   -0.5152   -3.8055 S.o2      1 <0>         2.3725
     19 O3          1.2545   -1.6824   -4.4238 O.2       1 <0>        -0.9300
     20 O4          0.9688    0.7555   -4.3952 O.2       1 <0>        -0.9311
     21 C11         1.2742   -0.4714   -2.0499 C.3       1 <0>        -0.6019
     22 H2          1.3654    1.5857    0.1154 H         1 <0>         0.0562
     23 H3         -0.0740    1.8950   -0.8850 H         1 <0>         0.0740
     24 H4         -0.2092    1.8843    0.8898 H         1 <0>         0.0757
     25 H5          0.1279    1.0133    2.4376 H         1 <0>         0.1312
     26 H6         -0.8600   -2.6156    4.4723 H         1 <0>         0.1387
     27 H7         -0.6426   -2.5576    0.2150 H         1 <0>         0.1397
     28 H8         -3.3821   -3.7352    2.1880 H         1 <0>         0.4171
     29 H9         -3.2785   -5.4120    2.1718 H         1 <0>         0.4214
     30 H10        -0.0265    0.8758    4.8447 H         1 <0>         0.4011
     31 H11        -0.4150   -0.5501    5.6439 H         1 <0>         0.4037
     32 H12        -2.1681   -0.5683   -1.6743 H         1 <0>         0.1066
     33 H13        -1.2383    0.8896   -2.1077 H         1 <0>         0.0933
     34 H14        -1.3679   -1.7803   -3.6270 H         1 <0>         0.1446
     35 H15        -1.6514   -0.1226   -4.2614 H         1 <0>         0.1459
     36 H16         1.6946    0.5026   -1.7995 H         1 <0>         0.1451
     37 H17         1.9919   -1.2667   -1.8485 H         1 <0>         0.1492
@<TRIPOS>BOND
     1    1    2 1
     2    1   22 1
     3    1   23 1
     4    1   24 1
     5    2    3 1
     6    2   14 1
     7    3    8 ar
     8    3    4 ar
     9    4    5 ar
    10    4   25 1
    11    5    6 ar
    12    5   13 1
    13    6    7 ar
    14    6   26 1
    15    7    8 ar
    16    7    9 1
    17    8   27 1
    18    9   10 2
    19    9   11 2
    20    9   12 1
    21   12   28 1
    22   12   29 1
    23   13   30 1
    24   13   31 1
    25   14   15 1
    26   14   21 1
    27   14   16 1
    28   16   17 1
    29   16   32 1
    30   16   33 1
    31   17   18 1
    32   17   34 1
    33   17   35 1
    34   18   19 2
    35   18   20 2
    36   18   21 1
    37   21   36 1
    38   21   37 1
@<TRIPOS>MOLECULE
ZINC44934388
   37    38     0     0     0
SMALL
USER_CHARGES

@<TRIPOS>ATOM
      1 C1          0.0279    1.3846    0.0397 C.3       1 <0>        -0.1886
      2 C2         -0.0798   -0.1335    0.1965 C.3       1 <0>         0.1895
      3 C3          0.5104   -0.7972   -1.0468 C.3       1 <0>        -0.1590
      4 C4          2.0284   -1.0642   -0.8461 C.3       1 <0>        -0.5584
      5 S1          2.0156   -1.5990    0.9215 S.o2      1 <0>         2.3641
      6 O1          3.2179   -1.1724    1.5475 O.2       1 <0>        -0.9319
      7 O2          1.6320   -2.9653    0.9936 O.2       1 <0>        -0.9239
      8 C5          0.6225   -0.5459    1.5049 C.3       1 <0>        -0.5832
      9 N1         -1.4964   -0.4950    0.2900 N.pl3     1 <0>        -1.1154
     10 S2         -2.5174   -0.1763   -0.9742 S.o2      1 <0>         2.6878
     11 O3         -1.8568   -0.6197   -2.1515 O.2       1 <0>        -0.9483
     12 O4         -3.7989   -0.6575   -0.5925 O.2       1 <0>        -0.9549
     13 C6         -2.6553    1.5755   -1.1036 C.ar      1 <0>        -0.7476
     14 C7         -2.1995    2.2233   -2.2352 C.ar      1 <0>         0.0171
     15 C8         -2.3069    3.5979   -2.3373 C.ar      1 <0>        -0.1900
     16 C9         -2.8711    4.3291   -1.3078 C.ar      1 <0>        -0.0179
     17 C10        -3.3293    3.6878   -0.1739 C.ar      1 <0>        -0.1993
     18 C11        -3.2277    2.3061   -0.0703 C.ar      1 <0>         0.3168
     19 N2         -3.6949    1.6537    1.0730 N.pl3     1 <0>        -0.5888
     20 N3         -4.3501    2.3590    2.0421 N.3       1 <0>        -0.5995
     21 H1          1.0712    1.6864    0.1325 H         1 <0>         0.0850
     22 H2         -0.3489    1.6763   -0.9406 H         1 <0>         0.0803
     23 H3         -0.5619    1.8728    0.8156 H         1 <0>         0.0746
     24 H4         -0.0012   -1.7425   -1.2282 H         1 <0>         0.1083
     25 H5          0.3701   -0.1419   -1.9065 H         1 <0>         0.1230
     26 H6          2.3814   -1.8617   -1.4999 H         1 <0>         0.1488
     27 H7          2.6132   -0.1545   -0.9818 H         1 <0>         0.1433
     28 H8          0.9979    0.3308    2.0329 H         1 <0>         0.1529
     29 H9         -0.0530   -1.1188    2.1401 H         1 <0>         0.1481
     30 H10        -1.8363   -0.9210    1.0924 H         1 <0>         0.4197
     31 H11        -1.7583    1.6553   -3.0409 H         1 <0>         0.1442
     32 H12        -1.9490    4.1020   -3.2229 H         1 <0>         0.1314
     33 H13        -2.9532    5.4027   -1.3906 H         1 <0>         0.1316
     34 H14        -3.7695    4.2594    0.6298 H         1 <0>         0.1347
     35 H15        -3.5541    0.6998    1.1787 H         1 <0>         0.3998
     36 H16        -4.6266    1.7568    2.8031 H         1 <0>         0.3654
     37 H17        -3.7858    3.1264    2.3749 H         1 <0>         0.3401
@<TRIPOS>BOND
     1    1    2 1
     2    1   21 1
     3    1   22 1
     4    1   23 1
     5    2    8 1
     6    2    3 1
     7    2    9 1
     8    3    4 1
     9    3   24 1
    10    3   25 1
    11    4    5 1
    12    4   26 1
    13    4   27 1
    14    5    6 2
    15    5    7 2
    16    5    8 1
    17    8   28 1
    18    8   29 1
    19    9   10 1
    20    9   30 1
    21   10   11 2
    22   10   12 2
    23   10   13 1
    24   13   18 ar
    25   13   14 ar
    26   14   15 ar
    27   14   31 1
    28   15   16 ar
    29   15   32 1
    30   16   17 ar
    31   16   33 1
    32   17   18 ar
    33   17   34 1
    34   18   19 1
    35   19   20 1
    36   19   35 1
    37   20   36 1
    38   20   37 1
@<TRIPOS>MOLECULE
ZINC62096984
   38    39     0     0     0
SMALL
USER_CHARGES

@<TRIPOS>ATOM
      1 C1         -0.0080    1.1697    0.2314 C.3       1 <0>        -0.6733
      2 S1          0.1016   -0.6348    0.0815 S.o2      1 <0>         2.6088
      3 O1          0.9772   -1.1559    1.0720 O.2       1 <0>        -0.9539
      4 O2         -1.1931   -1.1899   -0.1054 O.2       1 <0>        -0.9539
      5 N1          0.8845   -0.8958   -1.3542 N.pl3     1 <0>        -0.9946
      6 C2          0.1267   -1.0250   -2.6067 C.3       1 <0>         0.1024
      7 C3          0.6621    0.0025   -3.6117 C.3       1 <0>         0.1282
      8 N2          2.1272   -0.1036   -3.6562 N.pl3     1 <0>        -0.6628
      9 C4          2.8851    0.0256   -2.4037 C.3       1 <0>         0.1280
     10 C5          2.3500   -0.9962   -1.3995 C.3       1 <0>         0.1024
     11 C6          2.7899   -0.3245   -4.8715 C.ar      1 <0>         0.0600
     12 C7          3.2013    0.7500   -5.6373 C.ar      1 <0>        -0.0072
     13 C8          3.8627    0.5288   -6.8493 C.ar      1 <0>        -0.2434
     14 C9          4.1044   -0.7851   -7.2798 C.ar      1 <0>         0.3102
     15 C10         3.6857   -1.8546   -6.5004 C.ar      1 <0>        -0.2483
     16 C11         3.0374   -1.6272   -5.3014 C.ar      1 <0>         0.1776
     17 F1          2.6373   -2.6723   -4.5446 F         1 <0>        -0.1254
     18 N3          4.7615   -1.0148   -8.4846 N.pl3     1 <0>        -0.8474
     19 C12         4.3034    1.6694   -7.6708 C.2       1 <0>         0.5805
     20 O3          4.9721    1.4780   -8.6685 O.2       1 <0>        -0.5544
     21 N4          3.9656    2.9252   -7.3167 N.am      1 <0>        -0.8485
     22 H1          0.9954    1.5955    0.2361 H         1 <0>         0.1265
     23 H2         -0.5690    1.5710   -0.6125 H         1 <0>         0.1265
     24 H3         -0.5162    1.4269    1.1608 H         1 <0>         0.1276
     25 H4          0.2531   -2.0302   -3.0088 H         1 <0>         0.0785
     26 H5         -0.9296   -0.8345   -2.4165 H         1 <0>         0.0967
     27 H6          0.2503   -0.2032   -4.5997 H         1 <0>         0.0830
     28 H7          0.3774    1.0060   -3.2957 H         1 <0>         0.0578
     29 H8          3.9413   -0.1648   -2.5939 H         1 <0>         0.0832
     30 H9          2.7587    1.0308   -2.0016 H         1 <0>         0.0574
     31 H10         2.7618   -0.7868   -0.4122 H         1 <0>         0.0969
     32 H11         2.6384   -1.9994   -1.7136 H         1 <0>         0.0782
     33 H12         3.0118    1.7585   -5.3005 H         1 <0>         0.1345
     34 H13         3.8704   -2.8664   -6.8299 H         1 <0>         0.1414
     35 H14         5.1239   -0.2699   -8.9891 H         1 <0>         0.4207
     36 H15         4.8571   -1.9200   -8.8200 H         1 <0>         0.3976
     37 H16         3.4323    3.0779   -6.5210 H         1 <0>         0.4019
     38 H17         4.2558    3.6763   -7.8576 H         1 <0>         0.4067
@<TRIPOS>BOND
     1    1    2 1
     2    1   22 1
     3    1   23 1
     4    1   24 1
     5    2    3 2
     6    2    4 2
     7    2    5 1
     8    5   10 1
     9    5    6 1
    10    6    7 1
    11    6   25 1
    12    6   26 1
    13    7    8 1
    14    7   27 1
    15    7   28 1
    16    8    9 1
    17    8   11 1
    18    9   10 1
    19    9   29 1
    20    9   30 1
    21   10   31 1
    22   10   32 1
    23   11   16 ar
    24   11   12 ar
    25   12   13 ar
    26   12   33 1
    27   13   14 ar
    28   13   19 1
    29   14   15 ar
    30   14   18 1
    31   15   16 ar
    32   15   34 1
    33   16   17 1
    34   18   35 1
    35   18   36 1
    36   19   20 2
    37   19   21 am
    38   21   37 1
    39   21   38 1
@<TRIPOS>MOLECULE
ZINC19639574
   23    23     0     0     0
SMALL
USER_CHARGES
4-[[(2E)-2-hydroxyiminoacetyl]amino]benzenesulfonic acid
@<TRIPOS>ATOM
      1 C1          0.1556   -2.7151    0.1662 C.ar      1 <0>        -0.1680
      2 C2          0.2254   -4.0916    0.2539 C.ar      1 <0>        -0.0150
      3 C3         -0.9339   -4.8456    0.2543 C.ar      1 <0>        -0.6706
      4 C4         -2.1666   -4.2242    0.1738 C.ar      1 <0>        -0.0141
      5 C5         -2.2438   -2.8477    0.0926 C.ar      1 <0>        -0.1478
      6 C6         -1.0813   -2.0874    0.0914 C.ar      1 <0>         0.1634
      7 N1         -1.1558   -0.6938    0.0094 N.am      1 <0>        -0.6683
      8 C7         -2.1690   -0.0367    0.6079 C.2       1 <0>         0.5637
      9 O1         -3.0630   -0.6595    1.1472 O.2       1 <0>        -0.4948
     10 C8         -2.1932    1.4385    0.6085 C.2       1 <0>         0.0539
     11 N2         -3.1651    2.0688    1.1827 N.2       1 <0>        -0.2471
     12 O2         -3.1884    3.4846    1.1833 O.3       1 <0>        -0.4277
     13 S1         -0.8400   -6.6020    0.3584 S.o2      1 <0>         2.6992
     14 O3          0.4044   -6.9065    0.9733 O.2       1 <0>        -1.0572
     15 O4         -2.0811   -7.0443    0.8906 O.2       1 <0>        -1.0560
     16 O5         -0.7631   -7.1337   -1.0657 O.3       1 <0>        -1.0774
     17 H1          1.0614   -2.1271    0.1611 H         1 <0>         0.1259
     18 H2          1.1865   -4.5800    0.3176 H         1 <0>         0.1391
     19 H3         -3.0701   -4.8160    0.1747 H         1 <0>         0.1381
     20 H4         -3.2069   -2.3630    0.0304 H         1 <0>         0.1371
     21 H5         -0.3875   -0.1335   -0.5436 H         1 <0>         0.4371
     22 H6         -1.3844    2.0021    0.1204 H         1 <0>         0.1381
     23 H7         -4.0153    4.0209    1.6718 H         1 <0>         0.4484
@<TRIPOS>BOND
     1    1    6 ar
     2    1    2 ar
     3    1   17 1
     4    2    3 ar
     5    2   18 1
     6    3    4 ar
     7    3   13 1
     8    4    5 ar
     9    4   19 1
    10    5    6 ar
    11    5   20 1
    12    6    7 1
    13    7    8 am
    14    7   21 1
    15    8    9 2
    16    8   10 1
    17   10   11 2
    18   10   22 1
    19   11   12 1
    20   12   23 1
    21   13   14 2
    22   13   15 2
    23   13   16 1
@<TRIPOS>MOLECULE
ZINC36337356
   36    36     0     0     0
SMALL
USER_CHARGES

@<TRIPOS>ATOM
      1 C1         -0.0187    1.5258    0.0104 C.3       1 <0>        -0.1468
      2 C2          0.0021   -0.0041    0.0020 C.3       1 <0>        -0.1342
      3 C3         -1.4333   -0.5336    0.0129 C.3       1 <0>        -0.0961
      4 C4         -1.4126   -2.0635    0.0045 C.3       1 <0>         0.0985
      5 C5         -0.6964   -2.5569   -1.2543 C.3       1 <0>        -0.1406
      6 C6         -0.6837   -2.5627    1.2254 C.2       1 <0>         0.5044
      7 O1         -1.2590   -3.2760    2.0296 O.co2     1 <0>        -0.6737
      8 O2          0.4813   -2.2533    1.4088 O.co2     1 <0>        -0.6936
      9 N1         -2.7870   -2.5706    0.0149 N.am      1 <0>        -0.6998
     10 C7         -3.0152   -3.8988    0.0099 C.2       1 <0>         0.6010
     11 O3         -2.0804   -4.6764   -0.0032 O.2       1 <0>        -0.5166
     12 C8         -4.3984   -4.4091    0.0204 C.2       1 <0>        -0.2618
     13 C9         -5.1758   -4.6920   -1.0847 C.2       1 <0>         0.1124
     14 N2         -6.3634   -5.1317   -0.6386 N.pl3     1 <0>        -0.4711
     15 H1         -7.1108   -5.4058   -1.1928 H         1 <0>         0.4359
     16 N3         -6.3409   -5.1284    0.7605 N.2       1 <0>        -0.3063
     17 C10        -5.1742   -4.7060    1.1633 C.2       1 <0>         0.1235
     18 C11        -4.7327   -4.5570    2.5964 C.3       1 <0>        -0.0800
     19 C12        -4.7670   -4.5353   -2.5267 C.3       1 <0>        -0.0934
     20 H2          1.0039    1.9031    0.0027 H         1 <0>         0.0475
     21 H3         -0.5459    1.8868   -0.8726 H         1 <0>         0.0404
     22 H4         -0.5289    1.8773    0.9072 H         1 <0>         0.0465
     23 H5          0.5123   -0.3556   -0.8948 H         1 <0>         0.0561
     24 H6          0.5293   -0.3651    0.8851 H         1 <0>         0.1091
     25 H7         -1.9435   -0.1821    0.9097 H         1 <0>         0.0543
     26 H8         -1.9605   -0.1726   -0.8702 H         1 <0>         0.0459
     27 H9          0.3262   -2.1796   -1.2621 H         1 <0>         0.0654
     28 H10        -0.6816   -3.6468   -1.2603 H         1 <0>         0.0667
     29 H11        -1.2236   -2.1958   -2.1374 H         1 <0>         0.0331
     30 H12        -3.5327   -1.9503    0.0253 H         1 <0>         0.3831
     31 H13        -4.9816   -3.5569    2.9512 H         1 <0>         0.0781
     32 H14        -5.2419   -5.2982    3.2124 H         1 <0>         0.0695
     33 H15        -3.6552   -4.7081    2.6623 H         1 <0>         0.0979
     34 H16        -4.3123   -5.4614   -2.8782 H         1 <0>         0.0847
     35 H17        -5.6457   -4.3097   -3.1310 H         1 <0>         0.0723
     36 H18        -4.0474   -3.7213   -2.6139 H         1 <0>         0.0877
@<TRIPOS>BOND
     1    1    2 1
     2    1   20 1
     3    1   21 1
     4    1   22 1
     5    2    3 1
     6    2   23 1
     7    2   24 1
     8    3    4 1
     9    3   25 1
    10    3   26 1
    11    4    5 1
    12    4    6 1
    13    4    9 1
    14    5   27 1
    15    5   28 1
    16    5   29 1
    17    6    7 2
    18    6    8 1
    19    9   10 am
    20    9   30 1
    21   10   11 2
    22   10   12 1
    23   12   17 1
    24   12   13 2
    25   13   14 1
    26   13   19 1
    27   14   15 1
    28   14   16 1
    29   16   17 2
    30   17   18 1
    31   18   31 1
    32   18   32 1
    33   18   33 1
    34   19   34 1
    35   19   35 1
    36   19   36 1
@<TRIPOS>MOLECULE
ZINC37921581
   26    26     0     0     0
SMALL
USER_CHARGES

@<TRIPOS>ATOM
      1 C1          0.0320    1.4307   -0.2135 C.ar      1 <0>        -0.0860
      2 C2          1.2205    2.0923    0.0410 C.ar      1 <0>        -0.1409
      3 C3          2.3808    1.3764    0.2501 C.ar      1 <0>        -0.0813
      4 C4          2.3544   -0.0185    0.2046 C.ar      1 <0>        -0.1483
      5 C5          1.1525   -0.6796   -0.0525 C.ar      1 <0>         0.0180
      6 C6         -0.0010    0.0485   -0.2599 C.ar      1 <0>        -0.1259
      7 C7          1.1147   -2.1852   -0.1040 C.3       1 <0>        -0.4480
      8 S1          0.9670   -2.8443    1.5796 S.o       1 <0>         1.3017
      9 O1         -0.2637   -2.4188    2.1484 O.2       1 <0>        -0.8459
     10 C8          0.9351   -4.6428    1.3455 C.3       1 <0>        -0.5051
     11 C9          0.8132   -5.3217    2.6854 C.2       1 <0>         0.5170
     12 O2          0.7534   -4.6540    3.7039 O.co2     1 <0>        -0.6842
     13 O3          0.7744   -6.5385    2.7511 O.co2     1 <0>        -0.6887
     14 C10         3.5944   -0.7923    0.4273 C.2       1 <0>         0.5603
     15 O4          3.5499   -2.0050    0.4963 O.2       1 <0>        -0.5174
     16 N1          4.7741   -0.1529    0.5540 N.am      1 <0>        -0.8531
     17 H1         -0.8746    1.9958   -0.3721 H         1 <0>         0.1262
     18 H2          1.2396    3.1716    0.0756 H         1 <0>         0.1272
     19 H3          3.3078    1.8940    0.4483 H         1 <0>         0.1271
     20 H4         -0.9318   -0.4618   -0.4590 H         1 <0>         0.1263
     21 H5          0.2585   -2.5071   -0.6967 H         1 <0>         0.0790
     22 H6          2.0325   -2.5563   -0.5602 H         1 <0>         0.1454
     23 H7          0.0826   -4.9131    0.7224 H         1 <0>         0.0782
     24 H8          1.8567   -4.9623    0.8589 H         1 <0>         0.1150
     25 H9          4.8096    0.8149    0.4990 H         1 <0>         0.3978
     26 H10         5.5876   -0.6606    0.7001 H         1 <0>         0.4058
@<TRIPOS>BOND
     1    1    6 ar
     2    1    2 ar
     3    1   17 1
     4    2    3 ar
     5    2   18 1
     6    3    4 ar
     7    3   19 1
     8    4    5 ar
     9    4   14 1
    10    5    6 ar
    11    5    7 1
    12    6   20 1
    13    7    8 1
    14    7   21 1
    15    7   22 1
    16    8    9 2
    17    8   10 1
    18   10   11 1
    19   10   23 1
    20   10   24 1
    21   11   12 2
    22   11   13 1
    23   14   15 2
    24   14   16 am
    25   16   25 1
    26   16   26 1
@<TRIPOS>MOLECULE
ZINC43395230
   29    29     0     0     0
SMALL
USER_CHARGES

@<TRIPOS>ATOM
      1 C1         -0.0184    1.5028    0.0103 C.3       1 <0>        -0.1109
      2 C2          0.0021   -0.0041    0.0020 C.ar      1 <0>         0.2130
      3 C3          0.0055   -0.6763   -1.2070 C.ar      1 <0>        -0.2427
      4 C4          0.0247   -2.0599   -1.2174 C.ar      1 <0>         0.0233
      5 C5          0.0401   -2.7339    0.0091 C.ar      1 <0>        -0.1646
      6 C6          0.0354   -1.9803    1.1955 C.ar      1 <0>         0.4599
      7 N1          0.0218   -0.6574    1.1475 N.ar      1 <0>        -0.5398
      8 N2          0.0504   -2.6245    2.4203 N.pl3     1 <0>        -0.6949
      9 C7          0.0456   -1.8428    3.6593 C.3       1 <0>         0.1094
     10 C8          0.0644   -2.7762    4.8423 C.2       1 <0>         0.4935
     11 O1          0.0802   -3.9762    4.6677 O.2       1 <0>        -0.5591
     12 N3          0.0636   -2.2773    6.0943 N.am      1 <0>        -0.6895
     13 C9          0.0818   -3.1847    7.2444 C.3       1 <0>         0.0495
     14 C10         0.0769   -2.3805    8.5188 C.2       1 <0>         0.4907
     15 O2          0.0597   -1.1623    8.4710 O.co2     1 <0>        -0.6906
     16 O3          0.0901   -2.9481    9.5978 O.co2     1 <0>        -0.6864
     17 C11         0.0598   -4.1651    0.0545 C.1       1 <0>         0.2567
     18 N4          0.0754   -5.3004    0.0905 N.1       1 <0>        -0.4181
     19 H1          1.0042    1.8801    0.0026 H         1 <0>         0.0848
     20 H2         -0.5455    1.8639   -0.8728 H         1 <0>         0.0795
     21 H3         -0.5286    1.8543    0.9071 H         1 <0>         0.0821
     22 H4         -0.0071   -0.1254   -2.1358 H         1 <0>         0.1408
     23 H5          0.0274   -2.6062   -2.1490 H         1 <0>         0.1419
     24 H6          0.0641   -3.5937    2.4584 H         1 <0>         0.4207
     25 H7          0.9269   -1.2020    3.6880 H         1 <0>         0.1017
     26 H8         -0.8529   -1.2268    3.6967 H         1 <0>         0.1016
     27 H9          0.0509   -1.3175    6.2340 H         1 <0>         0.4115
     28 H10        -0.7995   -3.8255    7.2156 H         1 <0>         0.0679
     29 H11         0.9803   -3.8007    7.2069 H         1 <0>         0.0679
@<TRIPOS>BOND
     1    1    2 1
     2    1   19 1
     3    1   20 1
     4    1   21 1
     5    2    7 ar
     6    2    3 ar
     7    3    4 ar
     8    3   22 1
     9    4    5 ar
    10    4   23 1
    11    5    6 ar
    12    5   17 1
    13    6    7 ar
    14    6    8 1
    15    8    9 1
    16    8   24 1
    17    9   10 1
    18    9   25 1
    19    9   26 1
    20   10   11 2
    21   10   12 am
    22   12   13 1
    23   12   27 1
    24   13   14 1
    25   13   28 1
    26   13   29 1
    27   14   15 2
    28   14   16 1
    29   17   18 3
@<TRIPOS>MOLECULE
ZINC61150904
   31    31     0     0     0
SMALL
USER_CHARGES

@<TRIPOS>ATOM
      1 C1         -0.8460    1.8376   -0.4150 C.3       1 <0>        -0.0862
      2 C2         -0.9048    0.3367   -0.2933 C.2       1 <0>         0.1818
      3 C3         -0.6496   -0.4953   -1.3742 C.2       1 <0>        -0.2890
      4 S1         -0.8693   -2.0969   -0.6154 S.3       1 <0>         0.1246
      5 C4         -1.2484   -1.5699    0.9372 C.2       1 <0>         0.2887
      6 N1         -1.1942   -0.2531    0.8393 N.2       1 <0>        -0.5952
      7 N2         -1.5408   -2.3311    2.0486 N.pl3     1 <0>        -0.8004
      8 C5         -0.2988   -0.1550   -2.7523 C.2       1 <0>         0.6187
      9 O1         -0.3327    1.0050   -3.1204 O.2       1 <0>        -0.5069
     10 N3          0.0621   -1.1255   -3.6151 N.am      1 <0>        -0.5849
     11 C6          0.0558   -2.5263   -3.1863 C.3       1 <0>         0.0724
     12 C7          0.4606   -0.7796   -4.9817 C.3       1 <0>         0.0995
     13 C8          0.8790   -2.0483   -5.7276 C.3       1 <0>        -0.1331
     14 C9         -0.7179   -0.1268   -5.7069 C.3       1 <0>        -0.1374
     15 C10         1.6194    0.1830   -4.9386 C.2       1 <0>         0.5046
     16 O2          2.1443    0.4578   -3.8731 O.co2     1 <0>        -0.6752
     17 O3          2.0319    0.6870   -5.9693 O.co2     1 <0>        -0.6983
     18 H1          0.1659    2.1802   -0.1990 H         1 <0>         0.0791
     19 H2         -1.1204    2.1310   -1.4282 H         1 <0>         0.0992
     20 H3         -1.5410    2.2871    0.2943 H         1 <0>         0.0665
     21 H4         -1.5432   -3.2991    1.9865 H         1 <0>         0.4172
     22 H5         -1.7443   -1.8987    2.8927 H         1 <0>         0.4096
     23 H6         -0.9515   -2.9314   -3.2832 H         1 <0>         0.0520
     24 H7          0.7400   -3.1006   -3.8109 H         1 <0>         0.0879
     25 H8          0.3741   -2.5892   -2.1457 H         1 <0>         0.0629
     26 H9          0.0409   -2.7445   -5.7587 H         1 <0>         0.0477
     27 H10         1.1755   -1.7909   -6.7444 H         1 <0>         0.0726
     28 H11         1.7186   -2.5133   -5.2109 H         1 <0>         0.0538
     29 H12        -1.0159    0.7770   -5.1755 H         1 <0>         0.0680
     30 H13        -0.4214    0.1306   -6.7237 H         1 <0>         0.0650
     31 H14        -1.5560   -0.8230   -5.7381 H         1 <0>         0.0351
@<TRIPOS>BOND
     1    1    2 1
     2    1   18 1
     3    1   19 1
     4    1   20 1
     5    2    6 1
     6    2    3 2
     7    3    4 1
     8    3    8 1
     9    4    5 1
    10    5    6 2
    11    5    7 1
    12    7   21 1
    13    7   22 1
    14    8    9 2
    15    8   10 am
    16   10   11 1
    17   10   12 1
    18   11   23 1
    19   11   24 1
    20   11   25 1
    21   12   13 1
    22   12   14 1
    23   12   15 1
    24   13   26 1
    25   13   27 1
    26   13   28 1
    27   14   29 1
    28   14   30 1
    29   14   31 1
    30   15   16 2
    31   15   17 1
@<TRIPOS>MOLECULE
ZINC19980331
   33    34     0     0     0
SMALL
USER_CHARGES
1-(3-aminophenyl)-3-[(3S)-1,1-dioxothiolan-3-yl]urea
@<TRIPOS>ATOM
      1 C1         -1.3636    1.8680   -0.7126 C.ar      1 <0>        -0.0497
      2 C2         -1.2415    3.0228    0.0362 C.ar      1 <0>        -0.2240
      3 C3         -2.3131    3.4768    0.7952 C.ar      1 <0>         0.2451
      4 C4         -3.5104    2.7746    0.7922 C.ar      1 <0>        -0.2092
      5 C5         -3.6311    1.6186    0.0352 C.ar      1 <0>         0.2160
      6 C6         -2.5540    1.1670   -0.7175 C.ar      1 <0>        -0.2143
      7 N1         -4.8364    0.9076    0.0299 N.am      1 <0>        -0.6965
      8 C7         -6.0074    1.5655    0.1413 C.2       1 <0>         0.7071
      9 O1         -6.0234    2.7812    0.1490 O.2       1 <0>        -0.5729
     10 N2         -7.1608    0.8757    0.2441 N.am      1 <0>        -0.7470
     11 C8         -8.4336    1.5908    0.3651 C.3       1 <0>         0.1644
     12 H1         -8.2373    2.4974    0.9563 H         1 <0>         0.1119
     13 C9         -8.9425    1.9680   -1.0361 C.3       1 <0>        -0.1507
     14 C10       -10.4201    2.4359   -0.9051 C.3       1 <0>        -0.5770
     15 S1        -11.0562    1.2069    0.3115 S.o2      1 <0>         2.3925
     16 O2        -11.6153    0.1064   -0.3924 O.2       1 <0>        -0.9297
     17 O3        -11.8377    1.8827    1.2871 O.2       1 <0>        -0.9313
     18 C11        -9.4671    0.6837    1.0754 C.3       1 <0>        -0.6005
     19 N3         -2.1875    4.6416    1.5557 N.pl3     1 <0>        -0.8974
     20 H2         -0.5280    1.5148   -1.2985 H         1 <0>         0.1232
     21 H3         -0.3108    3.5708    0.0347 H         1 <0>         0.1176
     22 H4         -4.3463    3.1278    1.3778 H         1 <0>         0.1302
     23 H5         -2.6477    0.2672   -1.3073 H         1 <0>         0.1192
     24 H6         -4.8281   -0.1883   -0.0652 H         1 <0>         0.4296
     25 H7         -7.1464   -0.2242    0.2371 H         1 <0>         0.4208
     26 H8         -8.3231    2.7800   -1.4449 H         1 <0>         0.1066
     27 H9         -8.8803    1.0910   -1.6972 H         1 <0>         0.0916
     28 H10       -10.4452    3.4735   -0.5406 H         1 <0>         0.1450
     29 H11       -10.9108    2.3806   -1.8881 H         1 <0>         0.1475
     30 H12        -9.2267   -0.3712    0.8769 H         1 <0>         0.1478
     31 H13        -9.4345    0.8695    2.1591 H         1 <0>         0.1510
     32 H14        -3.0363    5.0005    2.1564 H         1 <0>         0.4167
     33 H15        -1.2398    5.2001    1.5540 H         1 <0>         0.4165
@<TRIPOS>BOND
     1    1    6 ar
     2    1    2 ar
     3    1   20 1
     4    2    3 ar
     5    2   21 1
     6    3    4 ar
     7    3   19 1
     8    4    5 ar
     9    4   22 1
    10    5    6 ar
    11    5    7 1
    12    6   23 1
    13    7    8 am
    14    7   24 1
    15    8    9 2
    16    8   10 am
    17   10   11 1
    18   10   25 1
    19   11   12 1
    20   11   18 1
    21   11   13 1
    22   13   14 1
    23   13   26 1
    24   13   27 1
    25   14   15 1
    26   14   28 1
    27   14   29 1
    28   15   16 2
    29   15   17 2
    30   15   18 1
    31   18   30 1
    32   18   31 1
    33   19   32 1
    34   19   33 1
@<TRIPOS>MOLECULE
ZINC37756900
   40    41     0     0     0
SMALL
USER_CHARGES

@<TRIPOS>ATOM
      1 C1         -0.0184    1.5028    0.0103 C.3       1 <0>        -0.1062
      2 C2          0.0021   -0.0041    0.0020 C.ar      1 <0>         0.2050
      3 C3          0.0060   -0.6964   -1.1931 C.ar      1 <0>        -0.2960
      4 C4          0.0256   -2.0919   -1.1504 C.ar      1 <0>         0.4557
      5 N1          0.0398   -2.6994    0.0326 N.ar      1 <0>        -0.5824
      6 C5          0.0354   -1.9987    1.1483 C.ar      1 <0>         0.3634
      7 N2          0.0221   -0.6809    1.1415 N.ar      1 <0>        -0.5621
      8 C6          0.0518   -2.7243    2.4690 C.3       1 <0>        -0.0840
      9 N3          0.0298   -2.8319   -2.3217 N.pl3     1 <0>        -0.5719
     10 C7          0.1243   -2.1532   -3.6165 C.3       1 <0>         0.1737
     11 C8          1.5737   -2.0054   -4.0017 C.ar      1 <0>        -0.1730
     12 C9          2.2791   -0.8807   -3.6149 C.ar      1 <0>        -0.0508
     13 C10         3.6075   -0.7421   -3.9662 C.ar      1 <0>        -0.1985
     14 C11         4.2350   -1.7342   -4.7090 C.ar      1 <0>         0.2228
     15 C12         3.5234   -2.8627   -5.0960 C.ar      1 <0>        -0.1998
     16 C13         2.1968   -2.9975   -4.7364 C.ar      1 <0>        -0.0537
     17 N4          5.5782   -1.5970   -5.0664 N.pl3     1 <0>        -0.8776
     18 C14        -0.0601   -4.2930   -2.2653 C.3       1 <0>         0.1064
     19 C15        -1.5080   -4.7090   -2.3048 C.2       1 <0>         0.4984
     20 O1         -2.3790   -3.8679   -2.3732 O.2       1 <0>        -0.5328
     21 N5         -1.8350   -6.0159   -2.2640 N.am      1 <0>        -0.8561
     22 H1          1.0042    1.8801    0.0026 H         1 <0>         0.0837
     23 H2         -0.5455    1.8639   -0.8728 H         1 <0>         0.0782
     24 H3         -0.5286    1.8543    0.9071 H         1 <0>         0.0820
     25 H4         -0.0062   -0.1716   -2.1369 H         1 <0>         0.1406
     26 H5          1.0834   -2.8849    2.7825 H         1 <0>         0.0847
     27 H6         -0.4668   -2.1265    3.2185 H         1 <0>         0.0856
     28 H7         -0.4492   -3.6863    2.3613 H         1 <0>         0.0821
     29 H8         -0.3948   -2.7410   -4.3736 H         1 <0>         0.0882
     30 H9         -0.3348   -1.1672   -3.5443 H         1 <0>         0.0884
     31 H10         1.7906   -0.1096   -3.0377 H         1 <0>         0.1209
     32 H11         4.1578    0.1367   -3.6640 H         1 <0>         0.1202
     33 H12         4.0082   -3.6356   -5.6739 H         1 <0>         0.1204
     34 H13         1.6442   -3.8767   -5.0332 H         1 <0>         0.1191
     35 H14         6.0740   -0.8084   -4.7959 H         1 <0>         0.3991
     36 H15         6.0153   -2.2904   -5.5852 H         1 <0>         0.3989
     37 H16         0.4647   -4.7225   -3.1186 H         1 <0>         0.1049
     38 H17         0.3954   -4.6497   -1.3415 H         1 <0>         0.1188
     39 H18        -1.1384   -6.6887   -2.2093 H         1 <0>         0.4016
     40 H19        -2.7670   -6.2837   -2.2894 H         1 <0>         0.4021
@<TRIPOS>BOND
     1    1    2 1
     2    1   22 1
     3    1   23 1
     4    1   24 1
     5    2    7 ar
     6    2    3 ar
     7    3    4 ar
     8    3   25 1
     9    4    5 ar
    10    4    9 1
    11    5    6 ar
    12    6    7 ar
    13    6    8 1
    14    8   26 1
    15    8   27 1
    16    8   28 1
    17    9   10 1
    18    9   18 1
    19   10   11 1
    20   10   29 1
    21   10   30 1
    22   11   16 ar
    23   11   12 ar
    24   12   13 ar
    25   12   31 1
    26   13   14 ar
    27   13   32 1
    28   14   15 ar
    29   14   17 1
    30   15   16 ar
    31   15   33 1
    32   16   34 1
    33   17   35 1
    34   17   36 1
    35   18   19 1
    36   18   37 1
    37   18   38 1
    38   19   20 2
    39   19   21 am
    40   21   39 1
    41   21   40 1
@<TRIPOS>MOLECULE
ZINC41022896
   36    36     0     0     0
SMALL
USER_CHARGES

@<TRIPOS>ATOM
      1 C1         -0.2433    1.5192   -0.1396 C.3       1 <0>        -0.1610
      2 C2          0.0148    0.0177    0.0005 C.3       1 <0>         0.1354
      3 H1          0.6468   -0.1628    0.8700 H         1 <0>         0.1249
      4 C3         -1.2969   -0.7034    0.1745 C.2       1 <0>         0.4989
      5 O1         -1.6362   -1.5468   -0.6276 O.2       1 <0>        -0.4501
      6 N1         -2.0930   -0.4108    1.2220 N.am      1 <0>        -0.6914
      7 C4         -3.2662   -1.0557    1.3776 C.2       1 <0>         0.6902
      8 O2         -3.6062   -1.9012    0.5734 O.2       1 <0>        -0.5282
      9 N2         -4.0622   -0.7631    2.4251 N.am      1 <0>        -0.7422
     10 C5         -5.3374   -1.4641    2.5943 C.3       1 <0>         0.1021
     11 N3          0.6878   -0.4765   -1.2033 N.pl3     1 <0>        -0.6084
     12 C6          0.0977   -0.2374   -2.5227 C.3       1 <0>         0.0972
     13 C7          1.8919   -1.1756   -1.0931 C.ar      1 <0>         0.2595
     14 C8          2.3847   -1.5192    0.1604 C.ar      1 <0>        -0.2542
     15 C9          3.5757   -2.2102    0.2703 C.ar      1 <0>        -0.0266
     16 C10         4.2809   -2.5625   -0.8645 C.ar      1 <0>        -0.2498
     17 C11         3.7939   -2.2221   -2.1206 C.ar      1 <0>         0.2577
     18 C12         2.5946   -1.5328   -2.2349 C.ar      1 <0>        -0.2672
     19 N4          4.5079   -2.5777   -3.2672 N.pl3     1 <0>        -0.8772
     20 H2          0.7055    2.0408   -0.2655 H         1 <0>         0.0807
     21 H3         -0.8753    1.6997   -1.0091 H         1 <0>         0.0677
     22 H4         -0.7440    1.8869    0.7561 H         1 <0>         0.0730
     23 H5         -1.8216    0.2639    1.8638 H         1 <0>         0.4088
     24 H6         -3.7908   -0.0883    3.0669 H         1 <0>         0.4003
     25 H7         -5.1536   -2.5338    2.6941 H         1 <0>         0.0622
     26 H8         -5.8381   -1.0964    3.4899 H         1 <0>         0.0811
     27 H9         -5.9694   -1.2836    1.7247 H         1 <0>         0.0621
     28 H10         0.4711    0.7055   -2.9222 H         1 <0>         0.0486
     29 H11         0.3706   -1.0505   -3.1955 H         1 <0>         0.0705
     30 H12        -0.9874   -0.1894   -2.4322 H         1 <0>         0.0688
     31 H13         1.8359   -1.2453    1.0493 H         1 <0>         0.1142
     32 H14         3.9567   -2.4753    1.2454 H         1 <0>         0.1203
     33 H15         5.2118   -3.1027   -0.7751 H         1 <0>         0.1156
     34 H16         2.2115   -1.2713   -3.2102 H         1 <0>         0.1207
     35 H17         5.3441   -3.0626   -3.1868 H         1 <0>         0.3986
     36 H18         4.1674   -2.3399   -4.1438 H         1 <0>         0.3971
@<TRIPOS>BOND
     1    1    2 1
     2    1   20 1
     3    1   21 1
     4    1   22 1
     5    2    3 1
     6    2    4 1
     7    2   11 1
     8    4    5 2
     9    4    6 am
    10    6    7 am
    11    6   23 1
    12    7    8 2
    13    7    9 am
    14    9   10 1
    15    9   24 1
    16   10   25 1
    17   10   26 1
    18   10   27 1
    19   11   12 1
    20   11   13 1
    21   12   28 1
    22   12   29 1
    23   12   30 1
    24   13   18 ar
    25   13   14 ar
    26   14   15 ar
    27   14   31 1
    28   15   16 ar
    29   15   32 1
    30   16   17 ar
    31   16   33 1
    32   17   18 ar
    33   17   19 1
    34   18   34 1
    35   19   35 1
    36   19   36 1
@<TRIPOS>MOLECULE
ZINC50305957
   34    35     0     0     0
SMALL
USER_CHARGES

@<TRIPOS>ATOM
      1 C1          1.2479    1.1071    0.8793 C.3       1 <0>        -0.0712
      2 C2          0.7378   -0.2853    0.6109 C.2       1 <0>        -0.0826
      3 C3          1.2475   -1.1744   -0.2824 C.2       1 <0>         0.1606
      4 C4          0.4348   -2.3318   -0.1684 C.2       1 <0>        -0.0662
      5 N1         -0.4770   -2.0759    0.7505 N.2       1 <0>        -0.2363
      6 N2         -0.3148   -0.8914    1.2202 N.pl3     1 <0>        -0.3624
      7 H1         -0.8656   -0.4870    1.9086 H         1 <0>         0.4481
      8 C5          0.5810   -3.5840   -0.9331 C.2       1 <0>         0.6123
      9 O1          1.4687   -3.6931   -1.7574 O.2       1 <0>        -0.5249
     10 N3         -0.2690   -4.6077   -0.7187 N.am      1 <0>        -0.6368
     11 C6         -0.1839   -5.7699   -1.5076 C.2       1 <0>        -0.0103
     12 C7         -0.3392   -5.8363   -2.9000 C.2       1 <0>         0.0945
     13 N4         -0.1910   -7.0819   -3.2718 N.2       1 <0>        -0.2877
     14 N5          0.0639   -7.8554   -2.1322 N.pl3     1 <0>        -0.3720
     15 C8          0.0688   -7.0254   -1.0570 C.2       1 <0>         0.0832
     16 C9          0.3078   -7.4260    0.3760 C.3       1 <0>        -0.0916
     17 C10         0.2902   -9.3026   -2.1054 C.3       1 <0>         0.1042
     18 C11        -0.6279   -4.6718   -3.8120 C.3       1 <0>        -0.0681
     19 N6          2.3445   -0.9871   -1.1360 N.pl3     1 <0>        -0.8528
     20 H2          2.0015    1.0726    1.6660 H         1 <0>         0.0713
     21 H3          1.6903    1.5136   -0.0301 H         1 <0>         0.0769
     22 H4          0.4207    1.7422    1.1962 H         1 <0>         0.0692
     23 H5         -0.9393   -4.5434   -0.0205 H         1 <0>         0.4111
     24 H6         -0.6424   -7.6809    0.8453 H         1 <0>         0.0826
     25 H7          0.9712   -8.2902    0.4059 H         1 <0>         0.0745
     26 H8          0.7673   -6.5964    0.9133 H         1 <0>         0.0848
     27 H9          1.3551   -9.5060   -2.2184 H         1 <0>         0.0759
     28 H10        -0.0581   -9.7072   -1.1551 H         1 <0>         0.0877
     29 H11        -0.2579   -9.7713   -2.9226 H         1 <0>         0.0918
     30 H12         0.2863   -4.3795   -4.3285 H         1 <0>         0.0807
     31 H13        -1.3819   -4.9617   -4.5438 H         1 <0>         0.0733
     32 H14        -0.9970   -3.8321   -3.2232 H         1 <0>         0.0699
     33 H15         2.8283   -0.1464   -1.1267 H         1 <0>         0.3973
     34 H16         2.6194   -1.6983   -1.7357 H         1 <0>         0.4129
@<TRIPOS>BOND
     1    1    2 1
     2    1   20 1
     3    1   21 1
     4    1   22 1
     5    2    6 1
     6    2    3 2
     7    3    4 1
     8    3   19 1
     9    4    5 2
    10    4    8 1
    11    5    6 1
    12    6    7 1
    13    8    9 2
    14    8   10 am
    15   10   11 1
    16   10   23 1
    17   11   15 2
    18   11   12 1
    19   12   13 2
    20   12   18 1
    21   13   14 1
    22   14   15 1
    23   14   17 1
    24   15   16 1
    25   16   24 1
    26   16   25 1
    27   16   26 1
    28   17   27 1
    29   17   28 1
    30   17   29 1
    31   18   30 1
    32   18   31 1
    33   18   32 1
    34   19   33 1
    35   19   34 1
@<TRIPOS>MOLECULE
ZINC54413581
   32    33     0     0     0
SMALL
USER_CHARGES

@<TRIPOS>ATOM
      1 C1         -0.0169    1.3931    0.0097 C.ar      1 <0>        -0.0111
      2 C2          1.1665    2.0971    0.0022 C.ar      1 <0>        -0.1851
      3 C3          2.3811    1.4195   -0.0131 C.ar      1 <0>         0.2197
      4 C4          2.4047    0.0255   -0.0208 C.ar      1 <0>         0.0072
      5 C5          1.2240   -0.6841   -0.0133 C.ar      1 <0>        -0.0685
      6 C6          0.0021   -0.0041    0.0020 C.ar      1 <0>        -0.1705
      7 C7         -1.2645   -0.7604    0.0105 C.2       1 <0>         0.5741
      8 O1         -2.3263   -0.1680    0.0243 O.2       1 <0>        -0.5200
      9 N1         -1.2447   -2.1080    0.0031 N.am      1 <0>        -0.7172
     10 C8         -2.5025   -2.8591    0.0116 C.3       1 <0>         0.1385
     11 H1         -3.2392   -2.3248    0.6115 H         1 <0>         0.1221
     12 C9         -2.2631   -4.2449    0.6159 C.3       1 <0>        -0.1316
     13 C10        -3.5082   -5.1044    0.3657 C.3       1 <0>        -0.1347
     14 C11        -3.6261   -5.3701   -1.1356 C.3       1 <0>         0.1061
     15 N2         -3.5301   -4.1228   -1.8836 N.am      1 <0>        -0.7211
     16 C12        -3.0103   -2.9976   -1.3949 C.2       1 <0>         0.5006
     17 O2         -2.9458   -2.0322   -2.1262 O.2       1 <0>        -0.5292
     18 F1          3.5861   -0.6297   -0.0360 F         1 <0>        -0.1401
     19 N3          3.5754    2.1345   -0.0211 N.pl3     1 <0>        -0.8617
     20 H2         -0.9592    1.9206    0.0260 H         1 <0>         0.1444
     21 H3          1.1515    3.1770    0.0078 H         1 <0>         0.1398
     22 H4          1.2420   -1.7639   -0.0196 H         1 <0>         0.1361
     23 H5         -0.3977   -2.5806   -0.0078 H         1 <0>         0.4017
     24 H6         -1.3969   -4.7071    0.1424 H         1 <0>         0.0782
     25 H7         -2.0902   -4.1528    1.6881 H         1 <0>         0.0879
     26 H8         -3.4124   -6.0506    0.8982 H         1 <0>         0.0938
     27 H9         -4.3946   -4.5742    0.7139 H         1 <0>         0.0784
     28 H10        -2.8242   -6.0396   -1.4470 H         1 <0>         0.0681
     29 H11        -4.5864   -5.8420   -1.3436 H         1 <0>         0.0806
     30 H12        -3.8643   -4.1120   -2.7941 H         1 <0>         0.4008
     31 H13         3.5600    3.1043   -0.0160 H         1 <0>         0.4071
     32 H14         4.4229    1.6629   -0.0317 H         1 <0>         0.4056
@<TRIPOS>BOND
     1    1    6 ar
     2    1    2 ar
     3    1   20 1
     4    2    3 ar
     5    2   21 1
     6    3    4 ar
     7    3   19 1
     8    4    5 ar
     9    4   18 1
    10    5    6 ar
    11    5   22 1
    12    6    7 1
    13    7    8 2
    14    7    9 am
    15    9   10 1
    16    9   23 1
    17   10   11 1
    18   10   16 1
    19   10   12 1
    20   12   13 1
    21   12   24 1
    22   12   25 1
    23   13   14 1
    24   13   26 1
    25   13   27 1
    26   14   15 1
    27   14   28 1
    28   14   29 1
    29   15   16 am
    30   15   30 1
    31   16   17 2
    32   19   31 1
    33   19   32 1
@<TRIPOS>MOLECULE
ZINC04644945
   31    32     0     0     0
SMALL
USER_CHARGES
2-(4-chlorophenyl)aminotetrahydropyran-3,4,5-triol
@<TRIPOS>ATOM
      1 C1         -1.2509    3.0368    0.0302 C.ar      1 <0>        -0.1796
      2 C2         -2.4577    3.7084    0.0333 C.ar      1 <0>        -0.0616
      3 C3         -3.6459    2.9990    0.0355 C.ar      1 <0>        -0.0850
      4 C4         -3.6286    1.6153    0.0280 C.ar      1 <0>        -0.0615
      5 C5         -2.4247    0.9385    0.0187 C.ar      1 <0>        -0.1739
      6 C6         -1.2306    1.6480    0.0168 C.ar      1 <0>         0.2176
      7 N1         -0.0111    0.9658    0.0074 N.pl3     1 <0>        -0.7217
      8 C7          1.2475    1.7155   -0.0006 C.3       1 <0>         0.2844
      9 H1          1.0874    2.6993    0.4405 H         1 <0>         0.0920
     10 C8          2.2992    0.9563    0.8127 C.3       1 <0>         0.0822
     11 H2          1.9722    0.8798    1.8496 H         1 <0>         0.0864
     12 C9          3.6280    1.7156    0.7496 C.3       1 <0>         0.1246
     13 H3          3.5104    2.6956    1.2120 H         1 <0>         0.0784
     14 C10         4.0378    1.8847   -0.7166 C.3       1 <0>         0.0385
     15 H4          4.2050    0.9046   -1.1634 H         1 <0>         0.0854
     16 C11         2.9190    2.6080   -1.4709 C.3       1 <0>         0.0407
     17 O1          1.7045    1.8653   -1.3463 O.3       1 <0>        -0.3824
     18 O2          5.2392    2.6547   -0.7910 O.3       1 <0>        -0.5622
     19 O3          4.6343    0.9766    1.4450 O.3       1 <0>        -0.5468
     20 O4          2.4710   -0.3532    0.2670 O.3       1 <0>        -0.5359
     21 Cl1        -5.1609    3.8465    0.0473 Cl        1 <0>        -0.0746
     22 H5         -0.3239    3.5909    0.0337 H         1 <0>         0.1286
     23 H6         -2.4741    4.7883    0.0385 H         1 <0>         0.1344
     24 H7         -4.5574    1.0642    0.0290 H         1 <0>         0.1356
     25 H8         -2.4118   -0.1414    0.0124 H         1 <0>         0.1327
     26 H9          0.0021   -0.0041    0.0020 H         1 <0>         0.4031
     27 H10         2.7809    3.6036   -1.0491 H         1 <0>         0.0632
     28 H11         3.1867    2.6933   -2.5240 H         1 <0>         0.1055
     29 H12         5.5573    2.8014   -1.6923 H         1 <0>         0.3883
     30 H13         5.5036    1.4001    1.4452 H         1 <0>         0.3889
     31 H14         1.6664   -0.8895    0.2706 H         1 <0>         0.3749
@<TRIPOS>BOND
     1    1    6 ar
     2    1    2 ar
     3    1   22 1
     4    2    3 ar
     5    2   23 1
     6    3    4 ar
     7    3   21 1
     8    4    5 ar
     9    4   24 1
    10    5    6 ar
    11    5   25 1
    12    6    7 1
    13    7    8 1
    14    7   26 1
    15    8    9 1
    16    8   17 1
    17    8   10 1
    18   10   11 1
    19   10   12 1
    20   10   20 1
    21   12   13 1
    22   12   14 1
    23   12   19 1
    24   14   15 1
    25   14   16 1
    26   14   18 1
    27   16   17 1
    28   16   27 1
    29   16   28 1
    30   18   29 1
    31   19   30 1
    32   20   31 1
@<TRIPOS>MOLECULE
ZINC34974515
   32    33     0     0     0
SMALL
USER_CHARGES

@<TRIPOS>ATOM
      1 C1         -0.0167    1.3779    0.0096 C.ar      1 <0>        -0.0733
      2 C2          1.1692    2.0897    0.0021 C.ar      1 <0>        -0.0988
      3 C3          2.3812    1.4171   -0.0131 C.ar      1 <0>         0.1422
      4 C4          2.4001    0.0221   -0.0208 C.ar      1 <0>         0.1957
      5 C5          1.2068   -0.6833   -0.0132 C.ar      1 <0>        -0.0936
      6 C6          0.0021   -0.0041    0.0020 C.ar      1 <0>        -0.6288
      7 S1         -1.5132   -0.9032    0.0123 S.o2      1 <0>         2.7016
      8 O1         -1.2216   -2.1844    0.5534 O.2       1 <0>        -0.9633
      9 O2         -2.4924   -0.0424    0.5775 O.2       1 <0>        -0.9594
     10 N1         -1.9500   -1.1446   -1.5667 N.pl3     1 <0>        -1.2479
     11 N2          3.6209   -0.6635   -0.0366 N.pl3     1 <0>        -0.8686
     12 N3          3.5829    2.1356   -0.0212 N.pl3     1 <0>        -0.6757
     13 C7          4.1878    2.5182   -1.2979 C.3       1 <0>         0.1434
     14 C8          4.1676    4.0448   -1.4356 C.3       1 <0>        -0.1038
     15 S2          5.0419    4.7684   -0.0152 S.3       1 <0>        -0.2584
     16 C9          4.2021    4.0192    1.4128 C.3       1 <0>        -0.1035
     17 C10         4.2158    2.5001    1.2473 C.3       1 <0>         0.1425
     18 H1         -0.9600    1.9035    0.0260 H         1 <0>         0.1409
     19 H2          1.1509    3.1695    0.0078 H         1 <0>         0.1297
     20 H3          1.2178   -1.7632   -0.0195 H         1 <0>         0.1414
     21 H4         -2.4592   -1.9322   -1.8141 H         1 <0>         0.4217
     22 H5         -1.6967   -0.4982   -2.2443 H         1 <0>         0.4174
     23 H6          4.4550   -0.1685   -0.0422 H         1 <0>         0.4024
     24 H7          3.6324   -1.6334   -0.0419 H         1 <0>         0.4009
     25 H8          5.2181    2.1639   -1.3325 H         1 <0>         0.0708
     26 H9          3.6224    2.0721   -2.1161 H         1 <0>         0.0814
     27 H10         4.6675    4.3354   -2.3595 H         1 <0>         0.1107
     28 H11         3.1362    4.3973   -1.4484 H         1 <0>         0.0841
     29 H12         4.7243    4.2933    2.3294 H         1 <0>         0.1114
     30 H13         3.1714    4.3711    1.4569 H         1 <0>         0.0842
     31 H14         3.6684    2.0423    2.0712 H         1 <0>         0.0820
     32 H15         5.2464    2.1455    1.2543 H         1 <0>         0.0708
@<TRIPOS>BOND
     1    1    6 ar
     2    1    2 ar
     3    1   18 1
     4    2    3 ar
     5    2   19 1
     6    3    4 ar
     7    3   12 1
     8    4    5 ar
     9    4   11 1
    10    5    6 ar
    11    5   20 1
    12    6    7 1
    13    7    8 2
    14    7    9 2
    15    7   10 1
    16   10   21 1
    17   10   22 1
    18   11   23 1
    19   11   24 1
    20   12   17 1
    21   12   13 1
    22   13   14 1
    23   13   25 1
    24   13   26 1
    25   14   15 1
    26   14   27 1
    27   14   28 1
    28   15   16 1
    29   16   17 1
    30   16   29 1
    31   16   30 1
    32   17   31 1
    33   17   32 1
@<TRIPOS>MOLECULE
ZINC37671203
   37    38     0     0     0
SMALL
USER_CHARGES

@<TRIPOS>ATOM
      1 C1         -0.0184    1.5028    0.0103 C.3       1 <0>        -0.1019
      2 C2          0.0021   -0.0041    0.0020 C.ar      1 <0>         0.1253
      3 C3          0.0057   -0.6874   -1.1993 C.ar      1 <0>        -0.0177
      4 N1          0.0236   -2.0097   -1.2121 N.ar      1 <0>        -0.4023
      5 C4          0.0381   -2.6821   -0.0769 C.ar      1 <0>         0.0144
      6 C5          0.0345   -1.9969    1.1359 C.ar      1 <0>         0.3646
      7 N2          0.0220   -0.6702    1.1440 N.ar      1 <0>        -0.5019
      8 N3          0.0492   -2.7011    2.3342 N.pl3     1 <0>        -0.7098
      9 C6          0.0454   -1.9785    3.6086 C.3       1 <0>         0.1051
     10 C7          0.0638   -2.9816    4.7638 C.3       1 <0>         0.1459
     11 H1         -0.7694   -3.6759    4.6554 H         1 <0>         0.1097
     12 C8         -0.0639   -2.2439    6.0717 C.ar      1 <0>        -0.1787
     13 C9          1.0425   -1.6275    6.6269 C.ar      1 <0>        -0.0573
     14 C10         0.9290   -0.9507    7.8254 C.ar      1 <0>        -0.1955
     15 C11        -0.2984   -0.8895    8.4731 C.ar      1 <0>         0.2216
     16 C12        -1.4077   -1.5098    7.9126 C.ar      1 <0>        -0.1966
     17 C13        -1.2884   -2.1802    6.7110 C.ar      1 <0>        -0.0548
     18 N4         -0.4166   -0.2062    9.6856 N.pl3     1 <0>        -0.8771
     19 O1          1.2945   -3.7076    4.7445 O.3       1 <0>        -0.5531
     20 C14         0.0580   -4.1888   -0.0924 C.3       1 <0>        -0.0941
     21 H2          1.0042    1.8801    0.0026 H         1 <0>         0.0823
     22 H3         -0.5455    1.8639   -0.8728 H         1 <0>         0.0811
     23 H4         -0.5286    1.8543    0.9071 H         1 <0>         0.0783
     24 H5         -0.0065   -0.1400   -2.1302 H         1 <0>         0.1643
     25 H6          0.0620   -3.6710    2.3267 H         1 <0>         0.4144
     26 H7          0.9273   -1.3406    3.6672 H         1 <0>         0.0689
     27 H8         -0.8525   -1.3641    3.6752 H         1 <0>         0.0755
     28 H9          1.9965   -1.6758    6.1229 H         1 <0>         0.1191
     29 H10         1.7935   -0.4698    8.2586 H         1 <0>         0.1219
     30 H11        -2.3633   -1.4645    8.4138 H         1 <0>         0.1222
     31 H12        -2.1515   -2.6589    6.2724 H         1 <0>         0.1231
     32 H13         0.3588    0.2262   10.0762 H         1 <0>         0.3994
     33 H14        -1.2741   -0.1642   10.1369 H         1 <0>         0.3994
     34 H15         2.0805   -3.1519    4.8366 H         1 <0>         0.3758
     35 H16         1.0904   -4.5385   -0.1012 H         1 <0>         0.0780
     36 H17        -0.4465   -4.5680    0.7963 H         1 <0>         0.0690
     37 H18        -0.4555   -4.5498   -0.9836 H         1 <0>         0.0814
@<TRIPOS>BOND
     1    1    2 1
     2    1   21 1
     3    1   22 1
     4    1   23 1
     5    2    7 ar
     6    2    3 ar
     7    3    4 ar
     8    3   24 1
     9    4    5 ar
    10    5    6 ar
    11    5   20 1
    12    6    7 ar
    13    6    8 1
    14    8    9 1
    15    8   25 1
    16    9   10 1
    17    9   26 1
    18    9   27 1
    19   10   11 1
    20   10   12 1
    21   10   19 1
    22   12   17 ar
    23   12   13 ar
    24   13   14 ar
    25   13   28 1
    26   14   15 ar
    27   14   29 1
    28   15   16 ar
    29   15   18 1
    30   16   17 ar
    31   16   30 1
    32   17   31 1
    33   18   32 1
    34   18   33 1
    35   19   34 1
    36   20   35 1
    37   20   36 1
    38   20   37 1
@<TRIPOS>MOLECULE
ZINC44838607
   36    36     0     0     0
SMALL
USER_CHARGES

@<TRIPOS>ATOM
      1 C1         -1.9891    0.9855   -1.8537 C.3       1 <0>        -0.1597
      2 C2         -1.6303   -0.4574   -1.4925 C.3       1 <0>        -0.0729
      3 C3         -0.3915   -0.8874   -2.2807 C.3       1 <0>        -0.1499
      4 C4         -1.3387   -0.5504    0.0065 C.3       1 <0>        -0.0933
      5 H1         -0.5422    0.1471    0.2657 H         1 <0>         0.1082
      6 C5         -2.5828   -0.2030    0.7828 C.2       1 <0>         0.2875
      7 S1         -3.5552   -1.3641    1.2960 S.2       1 <0>        -0.4138
      8 N1         -2.8759    1.0862    1.0446 N.pl3     1 <0>        -0.7768
      9 C6         -0.9086   -1.9537    0.3485 C.2       1 <0>         0.5430
     10 O1         -1.3996   -2.8973   -0.2340 O.2       1 <0>        -0.4979
     11 N2          0.0216   -2.1600    1.3017 N.am      1 <0>        -0.7192
     12 C7          0.5122   -3.5150    1.5653 C.3       1 <0>         0.1034
     13 C8          1.5381   -3.4720    2.6683 C.2       1 <0>         0.5156
     14 O2          1.8307   -2.4138    3.1835 O.2       1 <0>        -0.5353
     15 N3          2.1306   -4.6096    3.0823 N.am      1 <0>        -0.6973
     16 C9          3.1279   -4.5679    4.1546 C.3       1 <0>         0.0750
     17 C10         4.3987   -5.3996    3.9702 C.3       1 <0>        -0.1909
     18 C11         3.3347   -5.8414    4.9769 C.3       1 <0>        -0.1866
     19 H2         -2.1969    1.0517   -2.9217 H         1 <0>         0.0711
     20 H3         -2.8717    1.2918   -1.2922 H         1 <0>         0.0561
     21 H4         -1.1545    1.6407   -1.6046 H         1 <0>         0.0599
     22 H5         -2.4650   -1.1126   -1.7416 H         1 <0>         0.0961
     23 H6          0.4221   -0.1879   -2.0889 H         1 <0>         0.0563
     24 H7         -0.0916   -1.8879   -1.9688 H         1 <0>         0.0643
     25 H8         -0.6224   -0.8928   -3.3460 H         1 <0>         0.0670
     26 H9         -2.2860    1.7905    0.7333 H         1 <0>         0.3981
     27 H10        -3.6767    1.3097    1.5442 H         1 <0>         0.4207
     28 H11         0.3663   -1.4113    1.8131 H         1 <0>         0.4089
     29 H12        -0.3201   -4.1504    1.8678 H         1 <0>         0.1059
     30 H13         0.9677   -3.9188    0.6610 H         1 <0>         0.1019
     31 H14         1.8966   -5.4560    2.6702 H         1 <0>         0.4065
     32 H15         3.2214   -3.6135    4.6727 H         1 <0>         0.1394
     33 H16         4.4928   -5.9779    3.0510 H         1 <0>         0.0988
     34 H17         5.3287   -4.9924    4.3669 H         1 <0>         0.1043
     35 H18         3.5647   -5.7248    6.0360 H         1 <0>         0.1058
     36 H19         2.7288   -6.7103    4.7201 H         1 <0>         0.0997
@<TRIPOS>BOND
     1    1    2 1
     2    1   19 1
     3    1   20 1
     4    1   21 1
     5    2    3 1
     6    2    4 1
     7    2   22 1
     8    3   23 1
     9    3   24 1
    10    3   25 1
    11    4    5 1
    12    4    6 1
    13    4    9 1
    14    6    7 2
    15    6    8 1
    16    8   26 1
    17    8   27 1
    18    9   10 2
    19    9   11 am
    20   11   12 1
    21   11   28 1
    22   12   13 1
    23   12   29 1
    24   12   30 1
    25   13   14 2
    26   13   15 am
    27   15   16 1
    28   15   31 1
    29   16   18 1
    30   16   17 1
    31   16   32 1
    32   17   18 1
    33   17   33 1
    34   17   34 1
    35   18   35 1
    36   18   36 1
@<TRIPOS>MOLECULE
ZINC55171395
   33    33     0     0     0
SMALL
USER_CHARGES

@<TRIPOS>ATOM
      1 C1         -0.0184    1.5028    0.0103 C.3       1 <0>        -0.0914
      2 C2          0.0021   -0.0041    0.0020 C.2       1 <0>         0.2133
      3 C3          0.0061   -0.7290   -1.1812 C.2       1 <0>        -0.3370
      4 S1          0.0326   -2.3973   -0.5447 S.3       1 <0>         0.1247
      5 C4          0.0358   -2.0215    1.0957 C.2       1 <0>         0.3384
      6 N1          0.0225   -0.7001    1.1108 N.2       1 <0>        -0.5965
      7 N2          0.0533   -2.8865    2.1688 N.pl3     1 <0>        -0.7882
      8 C5         -0.0082   -0.2577   -2.5653 C.2       1 <0>         0.6244
      9 O1         -0.0267    0.9366   -2.8016 O.2       1 <0>        -0.5302
     10 N3         -0.0009   -1.1452   -3.5796 N.am      1 <0>        -0.7187
     11 C6         -0.0152   -0.6729   -4.9663 C.3       1 <0>         0.1021
     12 C7         -0.0032   -1.8558   -5.8999 C.2       1 <0>         0.5103
     13 O2          0.0155   -2.9824   -5.4512 O.2       1 <0>        -0.5351
     14 N4         -0.0133   -1.6618   -7.2336 N.am      1 <0>        -0.7215
     15 C8         -0.0016   -2.8117   -8.1413 C.3       1 <0>         0.1356
     16 C9         -0.6243   -2.4110   -9.4801 C.3       1 <0>        -0.1623
     17 C10         1.4410   -3.2691   -8.3663 C.3       1 <0>        -0.1654
     18 H1          1.0042    1.8801    0.0026 H         1 <0>         0.0837
     19 H2         -0.5455    1.8639   -0.8728 H         1 <0>         0.0976
     20 H3         -0.5286    1.8543    0.9071 H         1 <0>         0.0755
     21 H4          0.0659   -3.8448    2.0191 H         1 <0>         0.4237
     22 H5          0.0531   -2.5369    3.0736 H         1 <0>         0.4189
     23 H6          0.0139   -2.0966   -3.3914 H         1 <0>         0.4100
     24 H7         -0.9148   -0.0823   -5.1397 H         1 <0>         0.1032
     25 H8          0.8650   -0.0566   -5.1494 H         1 <0>         0.1032
     26 H9         -0.0282   -0.7607   -7.5925 H         1 <0>         0.4042
     27 H10        -0.5769   -3.6268   -7.7024 H         1 <0>         0.0899
     28 H11        -0.0490   -1.5959   -9.9190 H         1 <0>         0.0628
     29 H12        -0.6156   -3.2666  -10.1554 H         1 <0>         0.0750
     30 H13        -1.6520   -2.0851   -9.3198 H         1 <0>         0.0630
     31 H14         1.8847   -3.5546   -7.4125 H         1 <0>         0.0606
     32 H15         1.4497   -4.1247   -9.0416 H         1 <0>         0.0679
     33 H16         2.0163   -2.4540   -8.8052 H         1 <0>         0.0581
@<TRIPOS>BOND
     1    1    2 1
     2    1   18 1
     3    1   19 1
     4    1   20 1
     5    2    6 1
     6    2    3 2
     7    3    4 1
     8    3    8 1
     9    4    5 1
    10    5    6 2
    11    5    7 1
    12    7   21 1
    13    7   22 1
    14    8    9 2
    15    8   10 am
    16   10   11 1
    17   10   23 1
    18   11   12 1
    19   11   24 1
    20   11   25 1
    21   12   13 2
    22   12   14 am
    23   14   15 1
    24   14   26 1
    25   15   16 1
    26   15   17 1
    27   15   27 1
    28   16   28 1
    29   16   29 1
    30   16   30 1
    31   17   31 1
    32   17   32 1
    33   17   33 1
@<TRIPOS>MOLECULE
ZINC00524685
   28    29     0     0     0
SMALL
USER_CHARGES
2-[[4-amino-5-(4-fluorophenyl)-1,2,4-triazol-3-yl]sulfanyl]acetamide
@<TRIPOS>ATOM
      1 C1         -5.8715   -2.3488    0.2850 C.ar      1 <0>        -0.0419
      2 C2         -6.7375   -3.3943    0.5279 C.ar      1 <0>        -0.1443
      3 C3         -6.2509   -4.6085    0.9856 C.ar      1 <0>         0.1177
      4 C4         -4.8922   -4.7806    1.1975 C.ar      1 <0>        -0.1432
      5 C5         -4.0168   -3.7431    0.9536 C.ar      1 <0>        -0.0920
      6 C6         -4.5015   -2.5182    0.4921 C.ar      1 <0>        -0.0296
      7 C7         -3.5680   -1.4024    0.2294 C.2       1 <0>         0.1919
      8 N1         -3.8836   -0.1346    0.1022 N.2       1 <0>        -0.2489
      9 N2         -2.8253    0.5613   -0.1150 N.2       1 <0>        -0.2885
     10 C8         -1.7698   -0.2209   -0.1488 C.2       1 <0>         0.1765
     11 N3         -2.2044   -1.4968    0.0725 N.pl3     1 <0>        -0.3030
     12 N4         -1.4439   -2.6302    0.1264 N.3       1 <0>        -0.5849
     13 S1         -0.1036    0.2833   -0.4212 S.3       1 <0>         0.1213
     14 C9         -0.3439    2.0656   -0.6255 C.3       1 <0>        -0.1646
     15 C10         0.9869    2.7264   -0.8770 C.2       1 <0>         0.5389
     16 O1          1.9983    2.0581   -0.9144 O.2       1 <0>        -0.5271
     17 N5          1.0532    4.0599   -1.0603 N.am      1 <0>        -0.8447
     18 F1         -7.1041   -5.6279    1.2266 F         1 <0>        -0.1306
     19 H1         -6.2522   -1.4017   -0.0678 H         1 <0>         0.1507
     20 H2         -7.7973   -3.2655    0.3645 H         1 <0>         0.1489
     21 H3         -4.5182   -5.7288    1.5546 H         1 <0>         0.1465
     22 H4         -2.9582   -3.8781    1.1197 H         1 <0>         0.1249
     23 H5         -1.2037   -2.8595    1.0792 H         1 <0>         0.3704
     24 H6         -1.9124   -3.4019   -0.3241 H         1 <0>         0.3798
     25 H7         -1.0060    2.2483   -1.4719 H         1 <0>         0.1298
     26 H8         -0.7892    2.4783    0.2798 H         1 <0>         0.1293
     27 H9          0.2443    4.5944   -1.0304 H         1 <0>         0.4066
     28 H10         1.9099    4.4853   -1.2222 H         1 <0>         0.4098
@<TRIPOS>BOND
     1    1    6 ar
     2    1    2 ar
     3    1   19 1
     4    2    3 ar
     5    2   20 1
     6    3    4 ar
     7    3   18 1
     8    4    5 ar
     9    4   21 1
    10    5    6 ar
    11    5   22 1
    12    6    7 1
    13    7   11 1
    14    7    8 2
    15    8    9 1
    16    9   10 2
    17   10   11 1
    18   10   13 1
    19   11   12 1
    20   12   23 1
    21   12   24 1
    22   13   14 1
    23   14   15 1
    24   14   25 1
    25   14   26 1
    26   15   16 2
    27   15   17 am
    28   17   27 1
    29   17   28 1
@<TRIPOS>MOLECULE
ZINC40215670
   29    30     0     0     0
SMALL
USER_CHARGES

@<TRIPOS>ATOM
      1 C1         -0.0376   -2.0588    0.8898 C.2       1 <0>        -0.2114
      2 C2          1.2820   -2.4642    1.1123 C.2       1 <0>        -0.0901
      3 C3          2.1001   -1.5058    0.5523 C.2       1 <0>        -0.0713
      4 N1          1.2896   -0.5391    0.0016 N.pl3     1 <0>        -0.5427
      5 H1          1.5933    0.2577   -0.4607 H         1 <0>         0.4159
      6 C4         -0.0036   -0.8860    0.2129 C.2       1 <0>         0.0364
      7 C5          3.5665   -1.5146    0.5452 C.2       1 <0>         0.5938
      8 O1          4.1721   -2.4311    1.0691 O.2       1 <0>        -0.5010
      9 N2          4.2436   -0.5078   -0.0416 N.am      1 <0>        -0.6796
     10 C6          5.6392   -0.4657    0.0352 C.ar      1 <0>         0.2068
     11 C7          6.2942    0.7549    0.1365 C.ar      1 <0>        -0.1674
     12 C8          7.6727    0.7929    0.2126 C.ar      1 <0>         0.0028
     13 C9          8.4007   -0.3825    0.1875 C.ar      1 <0>        -0.6923
     14 C10         7.7517   -1.5994    0.0862 C.ar      1 <0>         0.0033
     15 C11         6.3732   -1.6447    0.0160 C.ar      1 <0>        -0.1430
     16 S1         10.1593   -0.3294    0.2842 S.o2      1 <0>         2.7040
     17 O2         10.6350   -1.5303   -0.3081 O.2       1 <0>        -0.9626
     18 O3         10.5528    0.9556   -0.1773 O.2       1 <0>        -0.9640
     19 N3         10.5638   -0.4005    1.8885 N.pl3     1 <0>        -1.2502
     20 H2         -0.9264   -2.5890    1.1987 H         1 <0>         0.1488
     21 H3          1.6004   -3.3592    1.6261 H         1 <0>         0.1516
     22 H4         -0.8660   -0.3199   -0.1066 H         1 <0>         0.1760
     23 H5          3.7629    0.1876   -0.5171 H         1 <0>         0.4095
     24 H6          5.7262    1.6733    0.1554 H         1 <0>         0.1377
     25 H7          8.1826    1.7417    0.2914 H         1 <0>         0.1490
     26 H8          8.3233   -2.5155    0.0665 H         1 <0>         0.1489
     27 H9          5.8667   -2.5957   -0.0585 H         1 <0>         0.1523
     28 H10         9.8681   -0.4589    2.5620 H         1 <0>         0.4172
     29 H11        11.4964   -0.3837    2.1547 H         1 <0>         0.4214
@<TRIPOS>BOND
     1    1    6 2
     2    1    2 1
     3    1   20 1
     4    2    3 2
     5    2   21 1
     6    3    4 1
     7    3    7 1
     8    4    5 1
     9    4    6 1
    10    6   22 1
    11    7    8 2
    12    7    9 am
    13    9   10 1
    14    9   23 1
    15   10   15 ar
    16   10   11 ar
    17   11   12 ar
    18   11   24 1
    19   12   13 ar
    20   12   25 1
    21   13   14 ar
    22   13   16 1
    23   14   15 ar
    24   14   26 1
    25   15   27 1
    26   16   17 2
    27   16   18 2
    28   16   19 1
    29   19   28 1
    30   19   29 1
@<TRIPOS>MOLECULE
ZINC44775349
   39    39     0     0     0
SMALL
USER_CHARGES

@<TRIPOS>ATOM
      1 C1          0.5617    1.2564    0.5644 C.3       1 <0>         0.0850
      2 N1          0.3578   -0.1817    0.3733 N.am      1 <0>        -0.7270
      3 C2          0.9235   -0.8088   -0.6770 C.2       1 <0>         0.5089
      4 O1          1.6013   -0.1826   -1.4640 O.2       1 <0>        -0.5379
      5 C3          0.7137   -2.2881   -0.8736 C.3       1 <0>         0.0966
      6 N2          1.4261   -2.7268   -2.0762 N.am      1 <0>        -0.7236
      7 C4          1.3809   -4.0203   -2.4521 C.2       1 <0>         0.5339
      8 O2          0.8180   -4.8357   -1.7527 O.2       1 <0>        -0.5036
      9 C5          2.0296   -4.4534   -3.7415 C.3       1 <0>        -0.0471
     10 C6          3.4609   -3.8814   -3.7972 C.3       1 <0>        -0.1083
     11 C7          4.0784   -4.0049   -2.4306 C.3       1 <0>        -0.1283
     12 C8          4.9070   -5.2941   -2.2725 C.3       1 <0>        -0.1167
     13 C9          4.2249   -6.5237   -2.9022 C.3       1 <0>        -0.1250
     14 C10         2.7457   -6.5646   -2.6288 C.3       1 <0>        -0.1172
     15 C11         2.0098   -5.9069   -3.8141 C.3       1 <0>        -0.1055
     16 C12         1.2382   -3.8962   -4.8966 C.2       1 <0>         0.2793
     17 S1          0.4254   -4.8819   -5.8582 S.2       1 <0>        -0.4073
     18 N3          1.2155   -2.5672   -5.1191 N.pl3     1 <0>        -0.7777
     19 H1          1.6263    1.4605    0.6781 H         1 <0>         0.0637
     20 H2          0.1787    1.7959   -0.3018 H         1 <0>         0.0633
     21 H3          0.0316    1.5828    1.4592 H         1 <0>         0.0810
     22 H4         -0.1843   -0.6825    1.0028 H         1 <0>         0.4077
     23 H5          1.0967   -2.8277   -0.0073 H         1 <0>         0.1058
     24 H6         -0.3510   -2.4922   -0.9872 H         1 <0>         0.1034
     25 H7          1.9304   -2.0863   -2.6019 H         1 <0>         0.4057
     26 H8          4.0526   -4.4449   -4.5186 H         1 <0>         0.0947
     27 H9          3.4247   -2.8319   -4.0892 H         1 <0>         0.0681
     28 H10         4.7265   -3.1457   -2.2574 H         1 <0>         0.0710
     29 H11         3.2848   -4.0019   -1.6834 H         1 <0>         0.0662
     30 H12         5.8774   -5.1488   -2.7473 H         1 <0>         0.0621
     31 H13         5.0627   -5.4839   -1.2105 H         1 <0>         0.0618
     32 H14         4.3838   -6.5016   -3.9803 H         1 <0>         0.0620
     33 H15         4.6832   -7.4265   -2.4986 H         1 <0>         0.0621
     34 H16         2.4211   -7.6000   -2.5254 H         1 <0>         0.0709
     35 H17         2.5274   -6.0162   -1.7125 H         1 <0>         0.0762
     36 H18         0.9739   -6.2460   -3.8185 H         1 <0>         0.0955
     37 H19         2.4859   -6.2204   -4.7431 H         1 <0>         0.0851
     38 H20         1.6510   -1.9637   -4.4969 H         1 <0>         0.3930
     39 H21         0.7635   -2.2141   -5.9014 H         1 <0>         0.4222
@<TRIPOS>BOND
     1    1    2 1
     2    1   19 1
     3    1   20 1
     4    1   21 1
     5    2    3 am
     6    2   22 1
     7    3    4 2
     8    3    5 1
     9    5    6 1
    10    5   23 1
    11    5   24 1
    12    6    7 am
    13    6   25 1
    14    7    8 2
    15    7    9 1
    16    9   15 1
    17    9   10 1
    18    9   16 1
    19   10   11 1
    20   10   26 1
    21   10   27 1
    22   11   12 1
    23   11   28 1
    24   11   29 1
    25   12   13 1
    26   12   30 1
    27   12   31 1
    28   13   14 1
    29   13   32 1
    30   13   33 1
    31   14   15 1
    32   14   34 1
    33   14   35 1
    34   15   36 1
    35   15   37 1
    36   16   17 2
    37   16   18 1
    38   18   38 1
    39   18   39 1
@<TRIPOS>MOLECULE
ZINC51124979
   31    32     0     0     0
SMALL
USER_CHARGES

@<TRIPOS>ATOM
      1 C1          0.0205    1.4995    0.0064 C.3       1 <0>        -0.0789
      2 C2          0.0577   -0.0070   -0.0007 C.2       1 <0>         0.0838
      3 C3          0.0899   -0.7089   -1.1601 C.2       1 <0>        -0.2128
      4 S1          0.1229   -2.3813   -0.5358 S.3       1 <0>         0.1089
      5 C4          0.0926   -2.0172    1.1070 C.2       1 <0>         0.2671
      6 N1          0.0657   -0.7018    1.1218 N.2       1 <0>        -0.5122
      7 N2          0.1001   -2.8925    2.1854 N.am      1 <0>        -0.6155
      8 C5          0.0720   -2.4114    3.4441 C.2       1 <0>         0.5785
      9 O1          0.0400   -1.2109    3.6356 O.2       1 <0>        -0.4886
     10 C6          0.0799   -3.3402    4.5884 C.ar      1 <0>        -0.2759
     11 C7         -0.0076   -4.7226    4.3851 C.ar      1 <0>         0.0078
     12 C8          0.0039   -5.5517    5.4923 C.ar      1 <0>        -0.2476
     13 C9          0.1005   -4.9986    6.7570 C.ar      1 <0>         0.1928
     14 N3          0.1816   -3.6938    6.9280 N.ar      1 <0>        -0.5343
     15 C10         0.1813   -2.8548    5.9034 C.ar      1 <0>         0.4654
     16 N4          0.2751   -1.4939    6.1288 N.pl3     1 <0>        -0.5440
     17 N5          0.4858   -1.0241    7.3941 N.3       1 <0>        -0.6022
     18 C11         0.0963   -0.2140   -2.5835 C.3       1 <0>        -0.0591
     19 H1          1.0389    1.8880    0.0169 H         1 <0>         0.0760
     20 H2         -0.4947    1.8545   -0.8861 H         1 <0>         0.0761
     21 H3         -0.5096    1.8457    0.8937 H         1 <0>         0.0752
     22 H4         -0.0826   -5.1316    3.3883 H         1 <0>         0.1352
     23 H5         -0.0624   -6.6228    5.3705 H         1 <0>         0.1420
     24 H6          0.1093   -5.6478    7.6201 H         1 <0>         0.1649
     25 H7          0.1913   -0.8728    5.3885 H         1 <0>         0.4288
     26 H8          0.5315   -0.0162    7.4026 H         1 <0>         0.3588
     27 H9         -0.2247   -1.3592    8.0272 H         1 <0>         0.3463
     28 H10         1.1251   -0.0694   -2.9133 H         1 <0>         0.0787
     29 H11        -0.3914   -0.9476   -3.2254 H         1 <0>         0.0739
     30 H12        -0.4403    0.7331   -2.6412 H         1 <0>         0.0849
     31 H13         0.1256   -3.8501    2.0327 H         1 <0>         0.4259
@<TRIPOS>BOND
     1    1    2 1
     2    1   19 1
     3    1   20 1
     4    1   21 1
     5    2    6 1
     6    2    3 2
     7    3    4 1
     8    3   18 1
     9    4    5 1
    10    5    6 2
    11    5    7 1
    12    7    8 am
    13    7   31 1
    14    8    9 2
    15    8   10 1
    16   10   15 ar
    17   10   11 ar
    18   11   12 ar
    19   11   22 1
    20   12   13 ar
    21   12   23 1
    22   13   14 ar
    23   13   24 1
    24   14   15 ar
    25   15   16 1
    26   16   17 1
    27   16   25 1
    28   17   26 1
    29   17   27 1
    30   18   28 1
    31   18   29 1
    32   18   30 1
@<TRIPOS>MOLECULE
ZINC62777572
   36    37     0     0     0
SMALL
USER_CHARGES

@<TRIPOS>ATOM
      1 C1          0.2044    1.3842   -0.2696 C.3       1 <0>        -0.1478
      2 C2          0.1343   -0.1412   -0.1742 C.3       1 <0>        -0.0949
      3 C3         -1.3297   -0.5815   -0.1118 C.3       1 <0>        -0.1128
      4 C4         -1.3998   -2.1069   -0.0164 C.3       1 <0>        -0.1165
      5 C5         -0.6728   -2.5729    1.2466 C.3       1 <0>         0.1964
      6 C6          0.7912   -2.1325    1.1843 C.3       1 <0>        -0.1195
      7 C7          0.8613   -0.6071    1.0889 C.3       1 <0>        -0.1118
      8 C8         -0.7418   -4.0753    1.3406 C.2       1 <0>         0.2777
      9 S1         -1.3755   -4.9231    0.1421 S.2       1 <0>        -0.4041
     10 N1         -0.2694   -4.7045    2.4349 N.pl3     1 <0>        -0.7803
     11 N2         -1.3113   -1.9800    2.4244 N.am      1 <0>        -0.7135
     12 C9         -2.5758   -2.3171    2.7467 C.2       1 <0>         0.5996
     13 O1         -3.2178   -3.0419    2.0117 O.2       1 <0>        -0.4996
     14 C10        -3.1815   -1.8057    3.9931 C.2       1 <0>        -0.0174
     15 C11        -4.4877   -2.0745    4.4665 C.2       1 <0>        -0.1774
     16 C12        -4.5958   -1.3979    5.6339 C.2       1 <0>        -0.0108
     17 N3         -3.4208   -0.7650    5.8397 N.pl3     1 <0>        -0.3799
     18 H1         -3.2192   -0.2045    6.6052 H         1 <0>         0.4483
     19 N4         -2.6062   -1.0170    4.8787 N.2       1 <0>        -0.2610
     20 H2          1.2473    1.6980   -0.3141 H         1 <0>         0.0544
     21 H3         -0.3135    1.7162   -1.1694 H         1 <0>         0.0567
     22 H4         -0.2707    1.8253    0.6067 H         1 <0>         0.0530
     23 H5          0.6094   -0.5822   -1.0505 H         1 <0>         0.0746
     24 H6         -1.8047   -0.1404    0.7645 H         1 <0>         0.0598
     25 H7         -1.8476   -0.2496   -1.0116 H         1 <0>         0.0693
     26 H8         -2.4427   -2.4207    0.0280 H         1 <0>         0.0977
     27 H9         -0.9247   -2.5480   -0.8927 H         1 <0>         0.0899
     28 H10         1.3091   -2.4644    2.0841 H         1 <0>         0.0702
     29 H11         1.2662   -2.5736    0.3080 H         1 <0>         0.0903
     30 H12         1.9042   -0.2934    1.0444 H         1 <0>         0.0732
     31 H13         0.3862   -0.1660    1.9651 H         1 <0>         0.0642
     32 H14         0.0477   -4.1881    3.1923 H         1 <0>         0.3930
     33 H15        -0.2465   -5.6738    2.4651 H         1 <0>         0.4171
     34 H16        -0.8240   -1.3450    2.9722 H         1 <0>         0.4089
     35 H17        -5.2400   -2.6898    3.9955 H         1 <0>         0.1647
     36 H18        -5.4606   -1.3693    6.2801 H         1 <0>         0.1882
@<TRIPOS>BOND
     1    1    2 1
     2    1   20 1
     3    1   21 1
     4    1   22 1
     5    2    7 1
     6    2    3 1
     7    2   23 1
     8    3    4 1
     9    3   24 1
    10    3   25 1
    11    4    5 1
    12    4   26 1
    13    4   27 1
    14    5    6 1
    15    5    8 1
    16    5   11 1
    17    6    7 1
    18    6   28 1
    19    6   29 1
    20    7   30 1
    21    7   31 1
    22    8    9 2
    23    8   10 1
    24   10   32 1
    25   10   33 1
    26   11   12 am
    27   11   34 1
    28   12   13 2
    29   12   14 1
    30   14   19 2
    31   14   15 1
    32   15   16 2
    33   15   35 1
    34   16   17 1
    35   16   36 1
    36   17   18 1
    37   17   19 1
@<TRIPOS>MOLECULE
ZINC20553202
   36    37     0     0     0
SMALL
USER_CHARGES
(3S)-1-(4-amino-2-chloro-phenyl)sulfonylpiperidine-3-carboxamide
@<TRIPOS>ATOM
      1 C1         -2.4242    0.9383    0.0186 C.ar      1 <0>        -0.2197
      2 C2         -3.6284    1.6151    0.0280 C.ar      1 <0>         0.0402
      3 C3         -3.6464    2.9974    0.0355 C.ar      1 <0>        -0.7377
      4 C4         -2.4584    3.7080    0.0338 C.ar      1 <0>         0.1053
      5 C5         -1.2505    3.0365    0.0302 C.ar      1 <0>        -0.2150
      6 C6         -1.2300    1.6477    0.0168 C.ar      1 <0>         0.2903
      7 N1         -0.0111    0.9658    0.0074 N.pl3     1 <0>        -0.8821
      8 Cl1        -2.4859    5.4437    0.0433 Cl        1 <0>        -0.0458
      9 S1         -5.1847    3.8565    0.0480 S.o2      1 <0>         2.6938
     10 O1         -5.1077    4.8422   -0.9726 O.2       1 <0>        -0.9452
     11 O2         -6.2030    2.8658    0.0750 O.2       1 <0>        -0.9570
     12 N2         -5.2789    4.6712    1.4867 N.pl3     1 <0>        -0.9944
     13 C7         -4.7654    6.0427    1.6053 C.3       1 <0>         0.1086
     14 C8         -5.8747    6.9376    2.1670 C.3       1 <0>        -0.1323
     15 C9         -6.3884    6.3430    3.4802 C.3       1 <0>        -0.1078
     16 C10        -6.9747    4.9538    3.2184 C.3       1 <0>        -0.1213
     17 H1         -7.8016    5.0242    2.4964 H         1 <0>         0.1049
     18 C11        -5.8829    4.0385    2.6671 C.3       1 <0>         0.1364
     19 C12        -7.5094    4.3826    4.5063 C.2       1 <0>         0.5258
     20 O3         -7.0608    3.3430    4.9411 O.2       1 <0>        -0.5490
     21 N3         -8.4861    5.0270    5.1751 N.am      1 <0>        -0.8768
     22 H2         -2.4113   -0.1416    0.0124 H         1 <0>         0.1361
     23 H3         -4.5569    1.0636    0.0298 H         1 <0>         0.1504
     24 H4         -0.3237    3.5910    0.0334 H         1 <0>         0.1390
     25 H5          0.9340    1.5286    0.0060 H         1 <0>         0.4256
     26 H6          0.0038   -0.1341    0.0014 H         1 <0>         0.4275
     27 H7         -3.8991    6.0525    2.2832 H         1 <0>         0.0728
     28 H8         -4.4590    6.4066    0.6135 H         1 <0>         0.0994
     29 H9         -5.4747    7.9456    2.3509 H         1 <0>         0.0828
     30 H10        -6.7000    6.9973    1.4422 H         1 <0>         0.0739
     31 H11        -5.5568    6.2605    4.1954 H         1 <0>         0.0727
     32 H12        -7.1682    6.9965    3.8984 H         1 <0>         0.0725
     33 H13        -6.3200    3.0705    2.3809 H         1 <0>         0.1018
     34 H14        -5.1102    3.8796    3.4337 H         1 <0>         0.0812
     35 H15        -8.8764    4.6100    6.1152 H         1 <0>         0.4231
     36 H16        -8.8929    5.9699    4.7808 H         1 <0>         0.4200
@<TRIPOS>BOND
     1    1    6 ar
     2    1    2 ar
     3    1   22 1
     4    2    3 ar
     5    2   23 1
     6    3    4 ar
     7    3    9 1
     8    4    5 ar
     9    4    8 1
    10    5    6 ar
    11    5   24 1
    12    6    7 1
    13    7   25 1
    14    7   26 1
    15    9   10 2
    16    9   11 2
    17    9   12 1
    18   12   18 1
    19   12   13 1
    20   13   14 1
    21   13   27 1
    22   13   28 1
    23   14   15 1
    24   14   29 1
    25   14   30 1
    26   15   16 1
    27   15   31 1
    28   15   32 1
    29   16   17 1
    30   16   18 1
    31   16   19 1
    32   18   33 1
    33   18   34 1
    34   19   20 2
    35   19   21 am
    36   21   35 1
    37   21   36 1
@<TRIPOS>MOLECULE
ZINC37760518
   31    32     0     0     0
SMALL
USER_CHARGES

@<TRIPOS>ATOM
      1 C1          1.1622   -0.3821   -0.5551 C.ar      1 <0>        -0.1221
      2 C2          1.2143   -1.6137   -1.1834 C.ar      1 <0>        -0.1105
      3 C3          0.0645   -2.3996   -1.1990 C.ar      1 <0>         0.1302
      4 C4         -1.0943   -1.9158   -0.5814 C.ar      1 <0>         0.0382
      5 N1         -1.0951   -0.7260    0.0094 N.ar      1 <0>        -0.4434
      6 C5         -0.0222    0.0322    0.0363 C.ar      1 <0>         0.0915
      7 C6         -2.3254   -2.7336   -0.5869 C.2       1 <0>         0.5761
      8 O1         -2.3292   -3.8228   -1.1268 O.2       1 <0>        -0.4898
      9 N2         -3.4439   -2.2717    0.0066 N.am      1 <0>        -0.6606
     10 C7         -4.6340   -3.0005   -0.0815 C.ar      1 <0>         0.2071
     11 C8         -5.8510   -2.3374   -0.1732 C.ar      1 <0>        -0.1650
     12 C9         -7.0246   -3.0602   -0.2605 C.ar      1 <0>         0.0029
     13 C10        -6.9890   -4.4426   -0.2568 C.ar      1 <0>        -0.6934
     14 C11        -5.7791   -5.1059   -0.1652 C.ar      1 <0>         0.0025
     15 C12        -4.6014   -4.3891   -0.0833 C.ar      1 <0>        -0.1450
     16 S1         -8.4886   -5.3609   -0.3684 S.o2      1 <0>         2.7039
     17 O2         -8.2283   -6.6350    0.2045 O.2       1 <0>        -0.9635
     18 O3         -9.5226   -4.5093    0.1059 O.2       1 <0>        -0.9641
     19 N3         -8.7872   -5.6173   -1.9769 N.pl3     1 <0>        -1.2504
     20 O4          0.0677   -3.6141   -1.8033 O.3       1 <0>        -0.4703
     21 H1          2.0376    0.2495   -0.5216 H         1 <0>         0.1499
     22 H2          2.1251   -1.9574   -1.6510 H         1 <0>         0.1525
     23 H3         -0.0618    0.9914    0.5309 H         1 <0>         0.1712
     24 H4         -3.4233   -1.4338    0.4948 H         1 <0>         0.4256
     25 H5         -5.8796   -1.2578   -0.1758 H         1 <0>         0.1399
     26 H6         -7.9713   -2.5452   -0.3314 H         1 <0>         0.1489
     27 H7         -5.7547   -6.1856   -0.1618 H         1 <0>         0.1478
     28 H8         -3.6564   -4.9077   -0.0167 H         1 <0>         0.1504
     29 H9         -8.1731   -5.2743   -2.6449 H         1 <0>         0.4171
     30 H10        -9.5762   -6.1104   -2.2512 H         1 <0>         0.4211
     31 H11         0.3162   -4.3435   -1.2190 H         1 <0>         0.4014
@<TRIPOS>BOND
     1    1    6 ar
     2    1   21 1
     3    1    2 ar
     4    2    3 ar
     5    2   22 1
     6    3   20 1
     7    3    4 ar
     8    4    7 1
     9    4    5 ar
    10    5    6 ar
    11    6   23 1
    12    7    8 2
    13    7    9 am
    14    9   10 1
    15    9   24 1
    16   10   15 ar
    17   10   11 ar
    18   11   12 ar
    19   11   25 1
    20   12   13 ar
    21   12   26 1
    22   13   14 ar
    23   13   16 1
    24   14   15 ar
    25   14   27 1
    26   15   28 1
    27   16   17 2
    28   16   18 2
    29   16   19 1
    30   19   29 1
    31   19   30 1
    32   20   31 1
@<TRIPOS>MOLECULE
ZINC44511062
   38    39     0     0     0
SMALL
USER_CHARGES

@<TRIPOS>ATOM
      1 C1         -0.2111    1.1695    0.2716 C.ar      1 <0>        -0.0209
      2 C2          0.0289    0.1708   -0.6547 C.ar      1 <0>        -0.1917
      3 C3          1.2776   -0.4176   -0.7336 C.ar      1 <0>         0.0203
      4 C4          2.2900   -0.0093    0.1126 C.ar      1 <0>        -0.7485
      5 C5          2.0525    0.9936    1.0436 C.ar      1 <0>         0.3131
      6 C6          0.7965    1.5825    1.1206 C.ar      1 <0>        -0.1994
      7 N1          3.0740    1.4090    1.9009 N.pl3     1 <0>        -0.5919
      8 N2          2.8129    2.3226    2.8823 N.3       1 <0>        -0.6012
      9 S1          3.8807   -0.7603    0.0115 S.o2      1 <0>         2.6937
     10 O1          3.7910   -1.7689   -0.9854 O.2       1 <0>        -0.9518
     11 O2          4.8259    0.2984   -0.0587 O.2       1 <0>        -0.9636
     12 N3          4.1472   -1.5381    1.4490 N.pl3     1 <0>        -1.1233
     13 C7          3.3069   -2.6749    1.8336 C.3       1 <0>         0.1206
     14 C8          3.9789   -3.4434    2.9731 C.3       1 <0>        -0.1360
     15 C9          3.1013   -4.6306    3.3747 C.3       1 <0>         0.0804
     16 H1          2.0952   -4.2837    3.6100 H         1 <0>         0.0841
     17 C10         3.7109   -5.3409    4.6024 C.3       1 <0>        -0.1515
     18 C11         3.4609   -6.8383    4.2748 C.3       1 <0>        -0.1578
     19 C12         3.6152   -6.8317    2.7330 C.3       1 <0>         0.0484
     20 O3          3.0496   -5.5808    2.3041 O.3       1 <0>        -0.3753
     21 H2         -1.1864    1.6300    0.3278 H         1 <0>         0.1312
     22 H3         -0.7609   -0.1503   -1.3175 H         1 <0>         0.1310
     23 H4          1.4614   -1.1977   -1.4576 H         1 <0>         0.1436
     24 H5          0.6086    2.3626    1.8435 H         1 <0>         0.1370
     25 H6          3.9689    1.0487    1.7994 H         1 <0>         0.4030
     26 H7          2.0637    2.0070    3.4800 H         1 <0>         0.3399
     27 H8          3.6432    2.5241    3.4189 H         1 <0>         0.3643
     28 H9          4.8596   -1.2410    2.0364 H         1 <0>         0.4138
     29 H10         2.3338   -2.3119    2.1644 H         1 <0>         0.0649
     30 H11         3.1760   -3.3361    0.9770 H         1 <0>         0.0914
     31 H12         4.9520   -3.8064    2.6423 H         1 <0>         0.0789
     32 H13         4.1098   -2.7822    3.8297 H         1 <0>         0.0785
     33 H14         4.7782   -5.1338    4.6801 H         1 <0>         0.0792
     34 H15         3.1910   -5.0516    5.5157 H         1 <0>         0.0832
     35 H16         4.2132   -7.4736    4.7422 H         1 <0>         0.0842
     36 H17         2.4559   -7.1420    4.5677 H         1 <0>         0.0796
     37 H18         4.6686   -6.8855    2.4580 H         1 <0>         0.0616
     38 H19         3.0659   -7.6646    2.2942 H         1 <0>         0.0873
@<TRIPOS>BOND
     1    1    6 ar
     2    1    2 ar
     3    1   21 1
     4    2    3 ar
     5    2   22 1
     6    3    4 ar
     7    3   23 1
     8    4    5 ar
     9    4    9 1
    10    5    6 ar
    11    5    7 1
    12    6   24 1
    13    7    8 1
    14    7   25 1
    15    8   26 1
    16    8   27 1
    17    9   10 2
    18    9   11 2
    19    9   12 1
    20   12   13 1
    21   12   28 1
    22   13   14 1
    23   13   29 1
    24   13   30 1
    25   14   15 1
    26   14   31 1
    27   14   32 1
    28   15   16 1
    29   15   20 1
    30   15   17 1
    31   17   18 1
    32   17   33 1
    33   17   34 1
    34   18   19 1
    35   18   35 1
    36   18   36 1
    37   19   20 1
    38   19   37 1
    39   19   38 1
@<TRIPOS>MOLECULE
ZINC50753203
   33    33     0     0     0
SMALL
USER_CHARGES

@<TRIPOS>ATOM
      1 C1         -0.0131    1.5228    0.0923 C.3       1 <0>        -0.1675
      2 C2          0.0058   -0.0069    0.0684 C.3       1 <0>         0.1147
      3 N1         -1.3692   -0.5121    0.0491 N.pl3     1 <0>        -0.6911
      4 C3         -1.6050   -1.8747    0.0257 C.ar      1 <0>         0.4661
      5 C4         -2.9216   -2.3577    0.1178 C.ar      1 <0>        -0.2670
      6 C5         -3.1356   -3.7404    0.0920 C.ar      1 <0>         0.0360
      7 C6         -2.0362   -4.5740   -0.0235 C.ar      1 <0>        -0.2265
      8 C7         -0.7695   -4.0230   -0.1094 C.ar      1 <0>         0.2226
      9 N2         -0.5897   -2.7166   -0.0887 N.ar      1 <0>        -0.5371
     10 Br1        -2.2636   -6.4508   -0.0630 Br        1 <0>        -0.0344
     11 C8         -4.0566   -1.4247    0.2398 C.2       1 <0>         0.5811
     12 O1         -3.8703   -0.2261    0.1539 O.2       1 <0>        -0.5399
     13 N3         -5.3006   -1.9002    0.4466 N.am      1 <0>        -0.7250
     14 C9         -6.4284   -0.9730    0.5678 C.3       1 <0>         0.1327
     15 C10        -7.7173   -1.7650    0.7967 C.3       1 <0>        -0.1577
     16 C11        -8.8775   -0.8112    0.9214 C.2       1 <0>         0.5214
     17 O2         -8.6916    0.3842    0.8357 O.2       1 <0>        -0.5362
     18 N4        -10.1215   -1.2867    1.1282 N.am      1 <0>        -0.8548
     19 H1          1.0099    1.8987    0.1066 H         1 <0>         0.0767
     20 H2         -0.5240    1.8937   -0.7963 H         1 <0>         0.0626
     21 H3         -0.5388    1.8658    0.9834 H         1 <0>         0.0623
     22 H4          0.5315   -0.3499   -0.8228 H         1 <0>         0.0706
     23 H5          0.5168   -0.3778    0.9569 H         1 <0>         0.0678
     24 H6         -2.1142    0.1091    0.0526 H         1 <0>         0.4280
     25 H7         -4.1337   -4.1472    0.1609 H         1 <0>         0.1434
     26 H8          0.0871   -4.6746   -0.1991 H         1 <0>         0.1705
     27 H9         -5.4492   -2.8562    0.5151 H         1 <0>         0.4007
     28 H10        -6.2590   -0.3031    1.4109 H         1 <0>         0.0818
     29 H11        -6.5186   -0.3889   -0.3480 H         1 <0>         0.0819
     30 H12        -7.8867   -2.4348   -0.0463 H         1 <0>         0.1041
     31 H13        -7.6271   -2.3491    1.7125 H         1 <0>         0.1041
     32 H14       -10.2701   -2.2428    1.1967 H         1 <0>         0.4030
     33 H15       -10.8682   -0.6728    1.2084 H         1 <0>         0.4052
@<TRIPOS>BOND
     1    1    2 1
     2    1   19 1
     3    1   20 1
     4    1   21 1
     5    2    3 1
     6    2   22 1
     7    2   23 1
     8    3    4 1
     9    3   24 1
    10    4    9 ar
    11    4    5 ar
    12    5    6 ar
    13    5   11 1
    14    6    7 ar
    15    6   25 1
    16    7    8 ar
    17    7   10 1
    18    8    9 ar
    19    8   26 1
    20   11   12 2
    21   11   13 am
    22   13   14 1
    23   13   27 1
    24   14   15 1
    25   14   28 1
    26   14   29 1
    27   15   16 1
    28   15   30 1
    29   15   31 1
    30   16   17 2
    31   16   18 am
    32   18   32 1
    33   18   33 1
@<TRIPOS>MOLECULE
ZINC62810722
   37    39     0     0     0
SMALL
USER_CHARGES

@<TRIPOS>ATOM
      1 C1         -0.0167    1.3779    0.0096 C.ar      1 <0>        -0.1071
      2 C2          1.1696    2.0876    0.0021 C.ar      1 <0>        -0.1108
      3 C3          2.3817    1.4145   -0.0127 C.ar      1 <0>         0.0494
      4 C4          2.4006    0.0245   -0.0177 C.ar      1 <0>         0.0523
      5 C5          1.2071   -0.6813   -0.0113 C.ar      1 <0>        -0.1065
      6 C6          0.0021   -0.0041    0.0020 C.ar      1 <0>        -0.0787
      7 C7         -1.2934   -0.7739    0.0087 C.3       1 <0>        -0.0875
      8 C8         -1.7438   -1.0267   -1.4315 C.3       1 <0>         0.1242
      9 N1         -3.0032   -1.7751   -1.4251 N.am      1 <0>        -0.7198
     10 C9         -3.5922   -2.1131   -2.5893 C.2       1 <0>         0.6106
     11 O1         -3.0783   -1.7968   -3.6450 O.2       1 <0>        -0.5403
     12 C10        -4.8599   -2.8664   -2.5828 C.2       1 <0>        -0.0706
     13 C11        -5.5913   -3.2960   -3.7200 C.2       1 <0>         0.1559
     14 C12        -6.6793   -3.9447   -3.2263 C.2       1 <0>        -0.1113
     15 N2         -6.5904   -3.8980   -1.8713 N.pl3     1 <0>        -0.3648
     16 H1         -7.2357   -4.2848   -1.2590 H         1 <0>         0.4501
     17 N3         -5.5250   -3.2732   -1.5181 N.2       1 <0>        -0.2377
     18 N4         -5.2617   -3.0940   -5.0682 N.pl3     1 <0>        -0.8553
     19 O2          3.5794   -0.6560   -0.0244 O.3       1 <0>        -0.3073
     20 C13         4.7458    0.0812   -0.4063 C.3       1 <0>         0.0200
     21 C14         4.7331    1.4219    0.3404 C.3       1 <0>         0.0201
     22 O3          3.5415    2.1268   -0.0241 O.3       1 <0>        -0.3075
     23 H2         -0.9596    1.9041    0.0259 H         1 <0>         0.1340
     24 H3          1.1522    3.1675    0.0074 H         1 <0>         0.1362
     25 H4          1.2190   -1.7612   -0.0174 H         1 <0>         0.1355
     26 H5         -1.1469   -1.7274    0.5162 H         1 <0>         0.0826
     27 H6         -2.0561   -0.1973    0.5320 H         1 <0>         0.0843
     28 H7         -1.8904   -0.0733   -1.9390 H         1 <0>         0.0731
     29 H8         -0.9812   -1.6034   -1.9548 H         1 <0>         0.0722
     30 H9         -3.4132   -2.0274   -0.5829 H         1 <0>         0.4076
     31 H10        -7.4659   -4.4092   -3.8024 H         1 <0>         0.1817
     32 H11        -4.4531   -2.6124   -5.3030 H         1 <0>         0.4127
     33 H12        -5.8424   -3.4359   -5.7659 H         1 <0>         0.3986
     34 H13         5.6402   -0.4808   -0.1375 H         1 <0>         0.1235
     35 H14         4.7323    0.2592   -1.4816 H         1 <0>         0.0787
     36 H15         4.7403    1.2438    1.4157 H         1 <0>         0.0783
     37 H16         5.6078    2.0080    0.0585 H         1 <0>         0.1234
@<TRIPOS>BOND
     1    1    6 ar
     2    1    2 ar
     3    1   23 1
     4    2    3 ar
     5    2   24 1
     6    3   22 1
     7    3    4 ar
     8    4    5 ar
     9    4   19 1
    10    5    6 ar
    11    5   25 1
    12    6    7 1
    13    7    8 1
    14    7   26 1
    15    7   27 1
    16    8    9 1
    17    8   28 1
    18    8   29 1
    19    9   10 am
    20    9   30 1
    21   10   11 2
    22   10   12 1
    23   12   17 2
    24   12   13 1
    25   13   14 2
    26   13   18 1
    27   14   15 1
    28   14   31 1
    29   15   16 1
    30   15   17 1
    31   18   32 1
    32   18   33 1
    33   19   20 1
    34   20   21 1
    35   20   34 1
    36   20   35 1
    37   21   22 1
    38   21   36 1
    39   21   37 1
@<TRIPOS>MOLECULE
ZINC08824661
   43    45     0     0     0
SMALL
USER_CHARGES
N-[4-amino-6-oxo-2-(3-pyridylmethylsulfanyl)-1H-pyrimidin-5-yl]-4-(trifluoromethyl)benzamide
@<TRIPOS>ATOM
      1 C1          2.3885   -0.0255    0.0238 C.ar      1 <0>        -0.1713
      2 C2          2.4050    1.3611    0.0261 C.ar      1 <0>        -0.0529
      3 C3          1.1938    2.0354    0.0317 C.ar      1 <0>        -0.1458
      4 C4          0.0182    1.3082    0.0342 C.ar      1 <0>         0.1240
      5 N1          0.0406   -0.0101    0.0319 N.ar      1 <0>        -0.4820
      6 C5          1.1740   -0.6845    0.0271 C.ar      1 <0>         0.1108
      7 C6          1.1591    3.5419    0.0339 C.3       1 <0>        -0.0535
      8 S1          1.1504    4.1427    1.7413 S.3       1 <0>         0.0204
      9 C7          1.1096    5.8806    1.4540 C.2       1 <0>         0.4033
     10 N2          1.0875    6.7314    2.5176 N.am      1 <0>        -0.6199
     11 H1          1.0948    6.3772    3.4206 H         1 <0>         0.4222
     12 C8          1.0610    8.0658    2.3182 C.2       1 <0>         0.5480
     13 O1          1.0453    8.8357    3.2662 O.2       1 <0>        -0.5179
     14 C9          1.0458    8.5527    1.0029 C.2       1 <0>        -0.1438
     15 C10         1.0642    7.6397   -0.0467 C.2       1 <0>         0.4636
     16 N3          1.0956    6.3284    0.2160 N.2       1 <0>        -0.5672
     17 N4          1.0495    8.0858   -1.3558 N.pl3     1 <0>        -0.8236
     18 N5          1.0132    9.9375    0.7499 N.am      1 <0>        -0.6395
     19 C11        -0.0084   10.6836    1.2148 C.2       1 <0>         0.5569
     20 O2         -0.8568   10.1782    1.9244 O.2       1 <0>        -0.4991
     21 C12        -0.0977   12.1164    0.8621 C.ar      1 <0>        -0.0960
     22 C13         0.8775   12.7010    0.0524 C.ar      1 <0>        -0.0912
     23 C14         0.7854   14.0374   -0.2774 C.ar      1 <0>        -0.0753
     24 C15        -0.2647   14.8005    0.2015 C.ar      1 <0>        -0.1606
     25 C16        -1.2318   14.2284    1.0088 C.ar      1 <0>        -0.0737
     26 C17        -1.1544   12.8919    1.3419 C.ar      1 <0>        -0.0596
     27 C18        -0.3557   16.2611   -0.1581 C.3       1 <0>         0.5073
     28 F1          0.3261   17.0204    0.7989 F         1 <0>        -0.1730
     29 F2          0.2213   16.4686   -1.4156 F         1 <0>        -0.1748
     30 F3         -1.6991   16.6503   -0.1916 F         1 <0>        -0.1739
     31 H2          3.3133   -0.5833    0.0191 H         1 <0>         0.1411
     32 H3          3.3393    1.9029    0.0233 H         1 <0>         0.1400
     33 H4         -0.9296    1.8260    0.0336 H         1 <0>         0.1599
     34 H5          1.1526   -1.7643    0.0253 H         1 <0>         0.1606
     35 H6          2.0389    3.9264   -0.4820 H         1 <0>         0.1161
     36 H7          0.2595    3.8854   -0.4767 H         1 <0>         0.1176
     37 H8          1.0620    7.4474   -2.0859 H         1 <0>         0.4110
     38 H9          1.0268    9.0372   -1.5437 H         1 <0>         0.4135
     39 H10         1.7260   10.3545    0.2410 H         1 <0>         0.4001
     40 H11         1.7003   12.1076   -0.3182 H         1 <0>         0.1375
     41 H12         1.5370   14.4901   -0.9071 H         1 <0>         0.1446
     42 H13        -2.0490   14.8296    1.3794 H         1 <0>         0.1459
     43 H14        -1.9100   12.4465    1.9721 H         1 <0>         0.1504
@<TRIPOS>BOND
     1    1    6 ar
     2    1    2 ar
     3    1   31 1
     4    2    3 ar
     5    2   32 1
     6    3    4 ar
     7    3    7 1
     8    4    5 ar
     9    4   33 1
    10    5    6 ar
    11    6   34 1
    12    7    8 1
    13    7   35 1
    14    7   36 1
    15    8    9 1
    16    9   16 2
    17    9   10 1
    18   10   11 1
    19   10   12 am
    20   12   13 2
    21   12   14 1
    22   14   15 2
    23   14   18 1
    24   15   16 1
    25   15   17 1
    26   17   37 1
    27   17   38 1
    28   18   19 am
    29   18   39 1
    30   19   20 2
    31   19   21 1
    32   21   26 ar
    33   21   22 ar
    34   22   23 ar
    35   22   40 1
    36   23   24 ar
    37   23   41 1
    38   24   25 ar
    39   24   27 1
    40   25   26 ar
    41   25   42 1
    42   26   43 1
    43   27   28 1
    44   27   29 1
    45   27   30 1
@<TRIPOS>MOLECULE
ZINC32999708
   48    49     0     0     0
SMALL
USER_CHARGES
(3R)-3-(3-bromophenyl)-N-[2-(4-methylphenoxy)ethyl]-3-ureido-propanamide
@<TRIPOS>ATOM
      1 C1         -3.0735   -5.1011   10.1808 C.3       1 <0>        -0.1147
      2 C2         -2.7093   -4.7926    8.7515 C.ar      1 <0>        -0.1216
      3 C3         -3.6292   -4.1781    7.9220 C.ar      1 <0>        -0.0809
      4 C4         -3.2977   -3.8942    6.6114 C.ar      1 <0>        -0.1465
      5 C5         -2.0406   -4.2261    6.1275 C.ar      1 <0>         0.1213
      6 C6         -1.1213   -4.8477    6.9601 C.ar      1 <0>        -0.2040
      7 C7         -1.4555   -5.1240    8.2718 C.ar      1 <0>        -0.0812
      8 O1         -1.7121   -3.9478    4.8385 O.3       1 <0>        -0.3130
      9 C8         -0.4003   -4.3178    4.4089 C.3       1 <0>         0.0456
     10 C9         -0.2155   -3.9279    2.9410 C.3       1 <0>         0.1261
     11 N1         -0.2684   -2.4695    2.8127 N.am      1 <0>        -0.7405
     12 C10        -0.1283   -1.8941    1.6020 C.2       1 <0>         0.5116
     13 O2          0.0416   -2.5836    0.6188 O.2       1 <0>        -0.5262
     14 C11        -0.1827   -0.3939    1.4699 C.3       1 <0>        -0.1458
     15 C12         0.0021   -0.0041    0.0020 C.3       1 <0>         0.2256
     16 H1          0.9167   -0.4523   -0.4136 H         1 <0>         0.1086
     17 C13         0.0706    1.4969   -0.1144 C.ar      1 <0>        -0.0920
     18 C14         1.2917    2.1216   -0.2883 C.ar      1 <0>        -0.0857
     19 C15         1.3551    3.4981   -0.3960 C.ar      1 <0>        -0.1116
     20 C16         0.1975    4.2509   -0.3294 C.ar      1 <0>        -0.0904
     21 C17        -1.0241    3.6264   -0.1550 C.ar      1 <0>        -0.0922
     22 C18        -1.0877    2.2482   -0.0530 C.ar      1 <0>        -0.0738
     23 Br1        -2.6080    4.6555   -0.0639 Br        1 <0>        -0.0516
     24 N2         -1.1301   -0.5035   -0.7821 N.am      1 <0>        -0.7429
     25 C19        -0.9907   -0.7190   -2.1052 C.2       1 <0>         0.7169
     26 O3          0.0974   -0.5864   -2.6314 O.2       1 <0>        -0.5999
     27 N3         -2.0573   -1.0815   -2.8451 N.am      1 <0>        -0.8925
     28 H2         -4.1030   -4.7670   10.3771 H         1 <0>         0.0656
     29 H3         -2.3824   -4.5762   10.8567 H         1 <0>         0.0685
     30 H4         -3.0009   -6.1853   10.3518 H         1 <0>         0.0685
     31 H5         -4.6078   -3.9202    8.2991 H         1 <0>         0.1294
     32 H6         -4.0165   -3.4139    5.9640 H         1 <0>         0.1303
     33 H7         -0.1436   -5.1112    6.5845 H         1 <0>         0.1272
     34 H8         -0.7385   -5.6032    8.9218 H         1 <0>         0.1248
     35 H9          0.3477   -3.7960    5.0239 H         1 <0>         0.0718
     36 H10        -0.2715   -5.4047    4.5186 H         1 <0>         0.0800
     37 H11         0.7594   -4.2922    2.5848 H         1 <0>         0.0888
     38 H12        -1.0178   -4.3784    2.3381 H         1 <0>         0.0782
     39 H13        -0.4225   -1.8442    3.7044 H         1 <0>         0.4247
     40 H14        -1.1576   -0.0296    1.8261 H         1 <0>         0.1029
     41 H15         0.6196    0.0566    2.0727 H         1 <0>         0.1121
     42 H16         2.1963    1.5339   -0.3403 H         1 <0>         0.1307
     43 H17         2.3090    3.9857   -0.5325 H         1 <0>         0.1336
     44 H18         0.2471    5.3264   -0.4139 H         1 <0>         0.1323
     45 H19        -2.0419    1.7597    0.0783 H         1 <0>         0.1284
     46 H20        -2.0940   -0.7026   -0.2910 H         1 <0>         0.4082
     47 H21        -1.9434   -1.2574   -3.9250 H         1 <0>         0.4353
     48 H22        -3.0417   -1.2015   -2.3691 H         1 <0>         0.4103
@<TRIPOS>BOND
     1    1    2 1
     2    1   28 1
     3    1   29 1
     4    1   30 1
     5    2    7 ar
     6    2    3 ar
     7    3    4 ar
     8    3   31 1
     9    4    5 ar
    10    4   32 1
    11    5    6 ar
    12    5    8 1
    13    6    7 ar
    14    6   33 1
    15    7   34 1
    16    8    9 1
    17    9   10 1
    18    9   35 1
    19    9   36 1
    20   10   11 1
    21   10   37 1
    22   10   38 1
    23   11   12 am
    24   11   39 1
    25   12   13 2
    26   12   14 1
    27   14   15 1
    28   14   40 1
    29   14   41 1
    30   15   16 1
    31   15   17 1
    32   15   24 1
    33   17   22 ar
    34   17   18 ar
    35   18   19 ar
    36   18   42 1
    37   19   20 ar
    38   19   43 1
    39   20   21 ar
    40   20   44 1
    41   21   22 ar
    42   21   23 1
    43   22   45 1
    44   24   25 am
    45   24   46 1
    46   25   26 2
    47   25   27 am
    48   27   47 1
    49   27   48 1
@<TRIPOS>MOLECULE
ZINC58236270
   51    52     0     0     0
SMALL
USER_CHARGES

@<TRIPOS>ATOM
      1 C1          1.1754    1.2500   -0.5435 C.3       1 <0>        -0.1137
      2 C2          0.9966   -0.2444   -0.4656 C.ar      1 <0>        -0.1487
      3 C3          0.8710   -0.9927   -1.6234 C.ar      1 <0>         0.0270
      4 C4          0.7066   -2.3772   -1.5055 C.ar      1 <0>        -0.0686
      5 C5          0.6759   -2.9484   -0.2204 C.ar      1 <0>         0.1498
      6 N1          0.8004   -2.1844    0.8542 N.ar      1 <0>        -0.4932
      7 C6          0.9623   -0.8787    0.7630 C.ar      1 <0>         0.1776
      8 C7          1.1055   -0.0617    2.0212 C.3       1 <0>        -0.1117
      9 S1          0.4702   -4.6889   -0.0395 S.3       1 <0>         0.0292
     10 C8          0.4926   -4.9492    1.7556 C.3       1 <0>        -0.1447
     11 C9          0.3234   -6.4169    2.0525 C.2       1 <0>         0.5334
     12 O1          0.2000   -7.2094    1.1427 O.2       1 <0>        -0.5192
     13 N2          0.3093   -6.8490    3.3291 N.am      1 <0>        -0.7181
     14 C10         0.1449   -8.2758    3.6177 C.3       1 <0>         0.1881
     15 C11        -1.3448   -8.6237    3.6378 C.3       1 <0>        -0.1603
     16 C12         0.7523   -8.5899    4.9607 C.ar      1 <0>        -0.1115
     17 C13         0.5901   -7.7091    6.0142 C.ar      1 <0>        -0.0927
     18 C14         1.1454   -7.9940    7.2463 C.ar      1 <0>        -0.1154
     19 C15         1.8674   -9.1665    7.4263 C.ar      1 <0>         0.1677
     20 C16         2.0285  -10.0490    6.3663 C.ar      1 <0>        -0.1424
     21 C17         1.4659   -9.7610    5.1383 C.ar      1 <0>        -0.0836
     22 N3          2.4318   -9.4580    8.6733 N.am      1 <0>        -0.6865
     23 C18         1.8085   -9.0679    9.8029 C.2       1 <0>         0.7051
     24 O2          0.7105   -8.5492    9.7432 O.2       1 <0>        -0.5738
     25 N4          2.4023   -9.2529   10.9985 N.am      1 <0>        -0.8605
     26 C19         0.5717   -3.1974   -2.6715 C.1       1 <0>         0.2515
     27 N5          0.4646   -3.8481   -3.5965 N.1       1 <0>        -0.3901
     28 C20         0.9100   -0.3324   -2.9774 C.3       1 <0>        -0.1291
     29 H1          2.2381    1.4864   -0.5979 H         1 <0>         0.0781
     30 H2          0.6727    1.6302   -1.4328 H         1 <0>         0.0756
     31 H3          0.7448    1.7142    0.3437 H         1 <0>         0.0762
     32 H4          0.1205    0.2592    2.3601 H         1 <0>         0.0867
     33 H5          1.5769   -0.6668    2.7956 H         1 <0>         0.0816
     34 H6          1.7227    0.8134    1.8179 H         1 <0>         0.0843
     35 H7          1.4435   -4.6037    2.1610 H         1 <0>         0.1250
     36 H8         -0.3227   -4.3895    2.2140 H         1 <0>         0.1253
     37 H9          0.4081   -6.2152    4.0567 H         1 <0>         0.4028
     38 H10         0.6447   -8.8624    2.8468 H         1 <0>         0.0994
     39 H11        -1.7841   -8.3966    2.6665 H         1 <0>         0.0660
     40 H12        -1.4672   -9.6854    3.8526 H         1 <0>         0.0705
     41 H13        -1.8446   -8.0372    4.4087 H         1 <0>         0.0607
     42 H14         0.0288   -6.7972    5.8735 H         1 <0>         0.1241
     43 H15         1.0187   -7.3056    8.0687 H         1 <0>         0.1381
     44 H16         2.5897  -10.9616    6.5031 H         1 <0>         0.1286
     45 H17         1.5871  -10.4490    4.3147 H         1 <0>         0.1305
     46 H18         3.2716   -9.9407    8.7247 H         1 <0>         0.4085
     47 H19         3.2783   -9.6667   11.0461 H         1 <0>         0.3998
     48 H20         1.9538   -8.9722   11.8115 H         1 <0>         0.4202
     49 H21         1.9391   -0.2966   -3.3347 H         1 <0>         0.0897
     50 H22         0.3018   -0.9044   -3.6782 H         1 <0>         0.0741
     51 H23         0.5172    0.6813   -2.8988 H         1 <0>         0.0885
@<TRIPOS>BOND
     1    1    2 1
     2    1   29 1
     3    1   30 1
     4    1   31 1
     5    2    7 ar
     6    2    3 ar
     7    3    4 ar
     8    3   28 1
     9    4    5 ar
    10    4   26 1
    11    5    6 ar
    12    5    9 1
    13    6    7 ar
    14    7    8 1
    15    8   32 1
    16    8   33 1
    17    8   34 1
    18    9   10 1
    19   10   11 1
    20   10   35 1
    21   10   36 1
    22   11   12 2
    23   11   13 am
    24   13   14 1
    25   13   37 1
    26   14   15 1
    27   14   16 1
    28   14   38 1
    29   15   39 1
    30   15   40 1
    31   15   41 1
    32   16   21 ar
    33   16   17 ar
    34   17   18 ar
    35   17   42 1
    36   18   19 ar
    37   18   43 1
    38   19   20 ar
    39   19   22 1
    40   20   21 ar
    41   20   44 1
    42   21   45 1
    43   22   23 am
    44   22   46 1
    45   23   24 2
    46   23   25 am
    47   25   47 1
    48   25   48 1
    49   26   27 3
    50   28   49 1
    51   28   50 1
    52   28   51 1
@<TRIPOS>MOLECULE
ZINC54611184
   52    53     0     0     0
SMALL
USER_CHARGES

@<TRIPOS>ATOM
      1 C1         -0.0184    1.5028    0.0103 C.3       1 <0>        -0.1174
      2 C2          0.0021   -0.0041    0.0020 C.ar      1 <0>        -0.0465
      3 C3          0.0057   -0.6883   -1.1997 C.ar      1 <0>        -0.1583
      4 C4          0.0244   -2.0706   -1.2107 C.ar      1 <0>        -0.0753
      5 C5          0.0391   -2.7719   -0.0203 C.ar      1 <0>        -0.2152
      6 C6          0.0355   -2.0879    1.1864 C.ar      1 <0>         0.1326
      7 C7          0.0229   -0.7004    1.1947 C.ar      1 <0>        -0.1536
      8 O1          0.0500   -2.7755    2.3585 O.3       1 <0>        -0.3116
      9 C8          0.0686   -4.2018    2.2738 C.3       1 <0>         0.0494
     10 C9          0.0829   -4.7963    3.6835 C.3       1 <0>         0.1677
     11 C10        -1.1026   -4.2479    4.4803 C.3       1 <0>        -0.1634
     12 N1          1.3330   -4.4316    4.3546 N.am      1 <0>        -0.7396
     13 C11         1.8125   -5.2021    5.3511 C.2       1 <0>         0.7080
     14 O2          1.2076   -6.1998    5.6931 O.2       1 <0>        -0.5851
     15 N2          2.9626   -4.8666    5.9685 N.am      1 <0>        -0.7426
     16 C12         3.4838   -5.7040    7.0517 C.3       1 <0>         0.2011
     17 C13         2.8273   -5.2967    8.3723 C.3       1 <0>        -0.1604
     18 C14         4.9761   -5.5205    7.1549 C.ar      1 <0>        -0.1122
     19 C15         5.5295   -4.2620    7.0083 C.ar      1 <0>        -0.0542
     20 C16         6.8981   -4.0937    7.1029 C.ar      1 <0>        -0.1336
     21 C17         7.7136   -5.1837    7.3448 C.ar      1 <0>        -0.0164
     22 C18         7.1602   -6.4416    7.4923 C.ar      1 <0>        -0.6704
     23 C19         5.7908   -6.6093    7.4018 C.ar      1 <0>        -0.0060
     24 S1          8.1995   -7.8307    7.7999 S.o2      1 <0>         2.7008
     25 O3          7.4868   -8.9773    7.3565 O.2       1 <0>        -0.9598
     26 O4          9.4865   -7.4936    7.3007 O.2       1 <0>        -0.9612
     27 N3          8.3518   -7.9741    9.4427 N.pl3     1 <0>        -1.2493
     28 H1          1.0042    1.8801    0.0026 H         1 <0>         0.0741
     29 H2         -0.5455    1.8639   -0.8728 H         1 <0>         0.0700
     30 H3         -0.5286    1.8543    0.9071 H         1 <0>         0.0689
     31 H4         -0.0065   -0.1419   -2.1312 H         1 <0>         0.1238
     32 H5          0.0272   -2.6027   -2.1505 H         1 <0>         0.1254
     33 H6          0.0530   -3.8518   -0.0294 H         1 <0>         0.1267
     34 H7          0.0248   -0.1655    2.1329 H         1 <0>         0.1293
     35 H8         -0.8194   -4.5459    1.7434 H         1 <0>         0.0810
     36 H9          0.9604   -4.5222    1.7353 H         1 <0>         0.0706
     37 H10         0.0074   -5.8819    3.6208 H         1 <0>         0.1085
     38 H11        -1.0271   -3.1623    4.5430 H         1 <0>         0.0659
     39 H12        -2.0327   -4.5193    3.9810 H         1 <0>         0.0662
     40 H13        -1.0924   -4.6714    5.4846 H         1 <0>         0.0642
     41 H14         1.8156   -3.6357    4.0818 H         1 <0>         0.4000
     42 H15         3.4452   -4.0706    5.6957 H         1 <0>         0.3948
     43 H16         3.2601   -6.7500    6.8420 H         1 <0>         0.1035
     44 H17         1.7480   -5.4295    8.2976 H         1 <0>         0.0705
     45 H18         3.2151   -5.9198    9.1782 H         1 <0>         0.0696
     46 H19         3.0511   -4.2507    8.5819 H         1 <0>         0.0587
     47 H20         4.8925   -3.4106    6.8194 H         1 <0>         0.1309
     48 H21         7.3305   -3.1108    6.9877 H         1 <0>         0.1382
     49 H22         8.7830   -5.0522    7.4181 H         1 <0>         0.1457
     50 H23         5.3581   -7.5916    7.5208 H         1 <0>         0.1469
     51 H24         7.9015   -7.3452   10.0282 H         1 <0>         0.4170
     52 H25         8.8911   -8.6868    9.8194 H         1 <0>         0.4223
@<TRIPOS>BOND
     1    1    2 1
     2    1   28 1
     3    1   29 1
     4    1   30 1
     5    2    7 ar
     6    2    3 ar
     7    3    4 ar
     8    3   31 1
     9    4    5 ar
    10    4   32 1
    11    5    6 ar
    12    5   33 1
    13    6    7 ar
    14    6    8 1
    15    7   34 1
    16    8    9 1
    17    9   10 1
    18    9   35 1
    19    9   36 1
    20   10   11 1
    21   10   12 1
    22   10   37 1
    23   11   38 1
    24   11   39 1
    25   11   40 1
    26   12   13 am
    27   12   41 1
    28   13   14 2
    29   13   15 am
    30   15   16 1
    31   15   42 1
    32   16   17 1
    33   16   18 1
    34   16   43 1
    35   17   44 1
    36   17   45 1
    37   17   46 1
    38   18   23 ar
    39   18   19 ar
    40   19   20 ar
    41   19   47 1
    42   20   21 ar
    43   20   48 1
    44   21   22 ar
    45   21   49 1
    46   22   23 ar
    47   22   24 1
    48   23   50 1
    49   24   25 2
    50   24   26 2
    51   24   27 1
    52   27   51 1
    53   27   52 1
@<TRIPOS>MOLECULE
ZINC67043067
   45    46     0     0     0
SMALL
USER_CHARGES

@<TRIPOS>ATOM
      1 C1         -0.0184    1.5028    0.0103 C.3       1 <0>        -0.1224
      2 C2          0.0021   -0.0041    0.0020 C.ar      1 <0>        -0.0889
      3 C3          0.0057   -0.6864   -1.2014 C.ar      1 <0>        -0.0996
      4 C4          0.0239   -2.0656   -1.2164 C.ar      1 <0>        -0.0626
      5 C5          0.0392   -2.7746   -0.0140 C.ar      1 <0>        -0.1165
      6 C6          0.0360   -2.0825    1.1975 C.ar      1 <0>        -0.1172
      7 C7          0.0229   -0.7004    1.1996 C.ar      1 <0>         0.0910
      8 F1          0.0253   -0.0275    2.3712 F         1 <0>        -0.1320
      9 C8          0.0583   -4.2529   -0.0242 C.2       1 <0>         0.5662
     10 O1          0.0606   -4.8534   -1.0810 O.2       1 <0>        -0.5262
     11 N1          0.0730   -4.9347    1.1383 N.am      1 <0>        -0.7236
     12 C9          0.0919   -6.3996    1.1282 C.3       1 <0>         0.1072
     13 C10         0.1060   -6.9194    2.5671 C.3       1 <0>         0.1242
     14 N2          0.1249   -8.3842    2.5570 N.am      1 <0>        -0.7414
     15 C11         0.1396   -9.0660    3.7195 C.2       1 <0>         0.7181
     16 O2          0.1372   -8.4654    4.7766 O.2       1 <0>        -0.5620
     17 N3          0.1570  -10.4136    3.7102 N.am      1 <0>        -0.5245
     18 N4          0.1597  -11.1058    2.4921 N.am      1 <0>        -0.5288
     19 C12         0.1771  -12.4534    2.4827 C.2       1 <0>         0.6151
     20 O3          0.1904  -13.0690    3.5325 O.2       1 <0>        -0.5125
     21 C13         0.1799  -13.1775    1.2083 C.2       1 <0>        -0.2745
     22 C14         0.1908  -14.5452    0.9802 C.2       1 <0>        -0.0126
     23 C15         0.1899  -14.9304   -0.3390 C.2       1 <0>        -0.1859
     24 C16         0.1789  -13.9777   -1.3038 C.2       1 <0>        -0.2033
     25 S1          0.1625  -12.5295   -0.4524 S.3       1 <0>         0.1999
     26 C17         0.2032  -15.5456    2.1072 C.3       1 <0>        -0.1113
     27 H1          1.0042    1.8801    0.0026 H         1 <0>         0.0810
     28 H2         -0.5455    1.8639   -0.8728 H         1 <0>         0.0780
     29 H3         -0.5286    1.8543    0.9071 H         1 <0>         0.0744
     30 H4         -0.0062   -0.1377   -2.1316 H         1 <0>         0.1429
     31 H5          0.0259   -2.5962   -2.1571 H         1 <0>         0.1454
     32 H6          0.0478   -2.6253    2.1312 H         1 <0>         0.1396
     33 H7          0.0711   -4.4555    1.9816 H         1 <0>         0.4046
     34 H8         -0.7960   -6.7709    0.6164 H         1 <0>         0.0803
     35 H9          0.9838   -6.7478    0.6073 H         1 <0>         0.0803
     36 H10         0.9938   -6.5481    3.0789 H         1 <0>         0.0811
     37 H11        -0.7859   -6.5711    3.0880 H         1 <0>         0.0811
     38 H12         0.1267   -8.8634    1.7136 H         1 <0>         0.3941
     39 H13         0.1676  -10.9043    4.5468 H         1 <0>         0.4474
     40 H14         0.1491  -10.6151    1.6554 H         1 <0>         0.4176
     41 H15         0.1983  -15.9774   -0.6036 H         1 <0>         0.1433
     42 H16         0.1772  -14.1178   -2.3747 H         1 <0>         0.1935
     43 H17        -0.8214  -15.7955    2.3825 H         1 <0>         0.0797
     44 H18         0.7236  -16.4479    1.7863 H         1 <0>         0.0698
     45 H19         0.7164  -15.1168    2.9679 H         1 <0>         0.0901
@<TRIPOS>BOND
     1    1    2 1
     2    1   27 1
     3    1   28 1
     4    1   29 1
     5    2    7 ar
     6    2    3 ar
     7    3    4 ar
     8    3   30 1
     9    4    5 ar
    10    4   31 1
    11    5    6 ar
    12    5    9 1
    13    6    7 ar
    14    6   32 1
    15    7    8 1
    16    9   10 2
    17    9   11 am
    18   11   12 1
    19   11   33 1
    20   12   13 1
    21   12   34 1
    22   12   35 1
    23   13   14 1
    24   13   36 1
    25   13   37 1
    26   14   15 am
    27   14   38 1
    28   15   16 2
    29   15   17 am
    30   17   18 1
    31   17   39 1
    32   18   19 am
    33   18   40 1
    34   19   20 2
    35   19   21 1
    36   21   25 1
    37   21   22 2
    38   22   23 1
    39   22   26 1
    40   23   24 2
    41   23   41 1
    42   24   25 1
    43   24   42 1
    44   26   43 1
    45   26   44 1
    46   26   45 1
@<TRIPOS>MOLECULE
ZINC05224227
   51    54     0     0     0
SMALL
USER_CHARGES
2-amino-9-[3,4-dihydroxy-5-(hydroxymethyl)tetrahydrofuran-2-yl]-8-(4-methylpiperazin-1-yl)-1H-purin-6-one
@<TRIPOS>ATOM
      1 C1         -2.2586    5.2046    5.2235 C.3       1 <0>        -0.0372
      2 C2         -2.4731    5.8510    2.8995 C.3       1 <0>        -0.0001
      3 C3         -2.4847    5.3167    1.4653 C.3       1 <0>         0.0379
      4 N1         -1.1900    4.6877    1.1692 N.pl3     1 <0>        -0.4411
      5 C4         -0.9199    3.5821    2.0989 C.3       1 <0>         0.0395
      6 C5         -0.9083    4.1164    3.5330 C.3       1 <0>         0.0009
      7 C6         -1.1377    4.2554   -0.1433 C.2       1 <0>         0.3747
      8 N2         -2.1568    3.8067   -0.8306 N.2       1 <0>        -0.4258
      9 C7         -1.7418    3.4725   -2.0811 C.2       1 <0>        -0.1298
     10 C8         -2.3889    2.9492   -3.2228 C.2       1 <0>         0.5909
     11 O1         -3.5831    2.7017   -3.2055 O.2       1 <0>        -0.5038
     12 N3         -1.6527    2.7301   -4.3346 N.am      1 <0>        -0.6420
     13 H1         -2.0885    2.3603   -5.1552 H         1 <0>         0.4350
     14 C9         -0.3190    3.0108   -4.3428 C.2       1 <0>         0.6134
     15 N4          0.2940    3.4973   -3.2870 N.2       1 <0>        -0.5432
     16 C10        -0.3727    3.7455   -2.1534 C.2       1 <0>         0.3528
     17 N5         -0.0123    4.2318   -0.9215 N.pl3     1 <0>        -0.4451
     18 C11         1.3305    4.6542   -0.5159 C.3       1 <0>         0.3062
     19 H2          2.0337    3.8265   -0.6081 H         1 <0>         0.1448
     20 C12         1.7975    5.8542   -1.3693 C.3       1 <0>         0.0817
     21 H3          2.8746    5.8138   -1.5318 H         1 <0>         0.1054
     22 C13         1.4243    7.0883   -0.5178 C.3       1 <0>         0.0395
     23 H4          0.7113    7.7180   -1.0499 H         1 <0>         0.0855
     24 C14         0.7760    6.4879    0.7493 C.3       1 <0>         0.0450
     25 H5         -0.3081    6.4549    0.6415 H         1 <0>         0.1081
     26 O2          1.3132    5.1504    0.8403 O.3       1 <0>        -0.3190
     27 C15         1.1628    7.3050    1.9837 C.3       1 <0>         0.0862
     28 O3          0.4751    6.7944    3.1276 O.3       1 <0>        -0.5753
     29 O4          2.5945    7.8352   -0.1789 O.3       1 <0>        -0.5478
     30 O5          1.1046    5.8798   -2.6188 O.3       1 <0>        -0.5294
     31 N6          0.4048    2.7783   -5.4865 N.pl3     1 <0>        -0.7441
     32 H6         -3.2502    5.6048    5.4350 H         1 <0>         0.1204
     33 H7         -2.0551    4.3667    5.8903 H         1 <0>         0.1205
     34 H8         -1.5117    5.9830    5.3797 H         1 <0>         0.1236
     35 H9         -1.6954    6.6082    2.9991 H         1 <0>         0.1514
     36 H10        -3.4424    6.2926    3.1308 H         1 <0>         0.1345
     37 H11        -2.6561    6.1400    0.7719 H         1 <0>         0.1214
     38 H12        -3.2802    4.5793    1.3580 H         1 <0>         0.0835
     39 H13        -1.6977    2.8249    1.9992 H         1 <0>         0.0686
     40 H14         0.0495    3.1408    1.8674 H         1 <0>         0.1217
     41 H15        -0.1128    4.8539    3.6399 H         1 <0>         0.1604
     42 H16        -0.7368    3.2933    4.2267 H         1 <0>         0.1316
     43 H17         2.2385    7.2332    2.1445 H         1 <0>         0.0711
     44 H18         0.8873    8.3483    1.8298 H         1 <0>         0.0639
     45 H19         0.6731    7.2659    3.9483 H         1 <0>         0.3850
     46 H20         2.4181    8.6214    0.3557 H         1 <0>         0.3845
     47 H21         1.3152    6.6461   -3.1697 H         1 <0>         0.3897
     48 H22         0.3520    1.8081   -5.7229 H         1 <0>         0.3770
     49 H23         1.3548    2.9732   -5.5073 H         1 <0>         0.3985
     50 N7         -2.2229    4.7262    3.8249 N.4       1 <0>        -0.3966
     51 H24        -2.9553    4.0183    3.6957 H         1 <0>         0.4251
@<TRIPOS>BOND
     1    1   32 1
     2    1   33 1
     3    1   34 1
     4    1   50 1
     5    2    3 1
     6    2   35 1
     7    2   36 1
     8    2   50 1
     9    3    4 1
    10    3   37 1
    11    3   38 1
    12    4    5 1
    13    4    7 1
    14    5    6 1
    15    5   39 1
    16    5   40 1
    17    6   41 1
    18    6   42 1
    19    6   50 1
    20    7   17 1
    21    7    8 2
    22    8    9 1
    23    9   16 2
    24    9   10 1
    25   10   11 2
    26   10   12 am
    27   12   13 1
    28   12   14 1
    29   14   15 2
    30   14   31 1
    31   15   16 1
    32   16   17 1
    33   17   18 1
    34   18   19 1
    35   18   26 1
    36   18   20 1
    37   20   21 1
    38   20   22 1
    39   20   30 1
    40   22   23 1
    41   22   24 1
    42   22   29 1
    43   24   25 1
    44   24   26 1
    45   24   27 1
    46   27   28 1
    47   27   43 1
    48   27   44 1
    49   28   45 1
    50   29   46 1
    51   30   47 1
    52   31   48 1
    53   31   49 1
    54   50   51 1
@<TRIPOS>MOLECULE
ZINC05163039
   44    46     0     0     0
SMALL
USER_CHARGES
(2S,3S,4R,5R)-2-(3-aminopropylsulfanylmethyl)-5-(6-aminopurin-9-yl)tetrahydrofuran-3,4-diol
@<TRIPOS>ATOM
      1 C1          1.1044    2.0239    0.0024 C.ar      1 <0>         0.3546
      2 N1         -0.0159    1.3246    0.0093 N.ar      1 <0>        -0.5457
      3 C2          0.0021   -0.0041    0.0020 C.ar      1 <0>         0.4588
      4 C3          1.2467   -0.6568   -0.0134 C.ar      1 <0>        -0.1031
      5 C4          2.4092    0.1319   -0.0202 C.ar      1 <0>         0.3064
      6 N2          2.2917    1.4559   -0.0124 N.ar      1 <0>        -0.5324
      7 N3          3.4626   -0.7470   -0.0346 N.pl3     1 <0>        -0.4746
      8 C5          2.9432   -2.0073   -0.0361 C.2       1 <0>         0.2720
      9 N4          1.6430   -1.9522   -0.0237 N.2       1 <0>        -0.4620
     10 C6          4.8848   -0.3955   -0.0468 C.3       1 <0>         0.3189
     11 H1          5.0474    0.5041   -0.6405 H         1 <0>         0.1251
     12 C7          5.4001   -0.1889    1.3948 C.3       1 <0>         0.0362
     13 H2          4.7787   -0.7351    2.1044 H         1 <0>         0.0845
     14 C8          6.8320   -0.7734    1.3671 C.3       1 <0>         0.0514
     15 H3          6.9185   -1.6086    2.0622 H         1 <0>         0.0881
     16 C9          7.0113   -1.2597   -0.0882 C.3       1 <0>         0.1061
     17 H4          7.5016   -0.4921   -0.6870 H         1 <0>         0.1070
     18 O1          5.6689   -1.4905   -0.5682 O.3       1 <0>        -0.3473
     19 C10         7.8191   -2.5586   -0.1201 C.3       1 <0>        -0.0828
     20 S1          8.0612   -3.0781   -1.8411 S.3       1 <0>        -0.2124
     21 C11         9.0224   -4.6106   -1.7059 C.3       1 <0>        -0.1035
     22 C12         9.3005   -5.1633   -3.1053 C.3       1 <0>        -0.1365
     23 C13        10.1112   -6.4558   -2.9912 C.3       1 <0>         0.0007
     24 O2          7.7924    0.2376    1.6791 O.3       1 <0>        -0.5373
     25 O3          5.4307    1.2020    1.7211 O.3       1 <0>        -0.5249
     26 N5         -1.1772   -0.7282    0.0089 N.pl3     1 <0>        -0.7496
     27 H5          1.0442    3.1022    0.0087 H         1 <0>         0.2122
     28 H6          3.5249   -2.9172   -0.0459 H         1 <0>         0.2242
     29 H7          8.7889   -2.3950    0.3499 H         1 <0>         0.1095
     30 H8          7.2794   -3.3355    0.4214 H         1 <0>         0.0977
     31 H9          9.9669   -4.4038   -1.2026 H         1 <0>         0.0928
     32 H10         8.4574   -5.3443   -1.1311 H         1 <0>         0.0933
     33 H11         8.3560   -5.3700   -3.6086 H         1 <0>         0.0989
     34 H12         9.8655   -4.4295   -3.6801 H         1 <0>         0.0981
     35 H13        11.0557   -6.2491   -2.4879 H         1 <0>         0.1341
     36 H14         9.5461   -7.1896   -2.4164 H         1 <0>         0.1370
     37 H15        10.9128   -7.8409   -4.2864 H         1 <0>         0.4424
     38 H16         9.5194   -7.1258   -4.8458 H         1 <0>         0.4389
     39 H17         7.7252    0.5789    2.5814 H         1 <0>         0.3891
     40 H18         5.7467    1.3892    2.6156 H         1 <0>         0.3862
     41 H19        -1.7004   -0.5052    0.8314 H         1 <0>         0.3697
     42 H20        -1.1509   -1.6978    0.0035 H         1 <0>         0.3836
     43 N6         10.3918   -6.9674   -4.3443 N.4       1 <0>        -0.6465
     44 H21        10.9522   -6.2765   -4.8569 H         1 <0>         0.4411
@<TRIPOS>BOND
     1    1    6 ar
     2    1    2 ar
     3    1   27 1
     4    2    3 ar
     5    3    4 ar
     6    3   26 1
     7    4    9 1
     8    4    5 ar
     9    5    6 ar
    10    5    7 1
    11    7    8 1
    12    7   10 1
    13    8    9 2
    14    8   28 1
    15   10   11 1
    16   10   18 1
    17   10   12 1
    18   12   13 1
    19   12   14 1
    20   12   25 1
    21   14   15 1
    22   14   16 1
    23   14   24 1
    24   16   17 1
    25   16   18 1
    26   16   19 1
    27   19   20 1
    28   19   29 1
    29   19   30 1
    30   20   21 1
    31   21   22 1
    32   21   31 1
    33   21   32 1
    34   22   23 1
    35   22   33 1
    36   22   34 1
    37   23   35 1
    38   23   36 1
    39   23   43 1
    40   24   39 1
    41   25   40 1
    42   26   41 1
    43   26   42 1
    44   37   43 1
    45   38   43 1
    46   43   44 1
@<TRIPOS>MOLECULE
ZINC22062002
   45    46     0     0     0
SMALL
USER_CHARGES
(2R,3R,4S,5S,6R)-6-[[(2S,3R,4S,5S,6S)-3,4,5-trihydroxy-6-(hydroxymethyl)tetrahydropyran-2-yl]oxymethyl]tetrahydropyran-2,3,4,5-tetrol
@<TRIPOS>ATOM
      1 C1          0.3702    5.0415    1.3650 C.3       1 <0>         0.0981
      2 C2          0.4594    3.5150    1.3137 C.3       1 <0>         0.1205
      3 H1         -0.5349    3.0549    1.4121 H         1 <0>         0.0826
      4 C3          1.1467    3.0871    0.0122 C.3       1 <0>         0.1054
      5 H2          0.6018    3.4505   -0.8716 H         1 <0>         0.0700
      6 C4          1.2864    1.5618   -0.0018 C.3       1 <0>         0.0931
      7 H3          1.7677    1.2095   -0.9260 H         1 <0>         0.0731
      8 C5          2.0644    1.1180    1.2408 C.3       1 <0>         0.0846
      9 H4          2.1965    0.0262    1.2654 H         1 <0>         0.0644
     10 C6          1.3417    1.6220    2.4927 C.3       1 <0>         0.2337
     11 H5          0.3303    1.2050    2.6078 H         1 <0>         0.0580
     12 O1          1.2179    3.0442    2.4297 O.3       1 <0>        -0.3792
     13 O2          2.0915    1.2599    3.6541 O.3       1 <0>        -0.3649
     14 C7          1.3999    1.4814    4.8848 C.3       1 <0>         0.0791
     15 C8          2.2924    1.0608    6.0542 C.3       1 <0>         0.1196
     16 H6          2.6805    0.0414    5.9120 H         1 <0>         0.0781
     17 C9          1.5083    1.1801    7.3636 C.3       1 <0>         0.1050
     18 H7          1.0801    2.1859    7.4861 H         1 <0>         0.0765
     19 C10         2.4262    0.8154    8.5344 C.3       1 <0>         0.0998
     20 H8          2.7114   -0.2467    8.5092 H         1 <0>         0.0723
     21 C11         3.6561    1.7281    8.5081 C.3       1 <0>         0.0762
     22 H9          3.3863    2.7745    8.7140 H         1 <0>         0.0777
     23 C12         4.3573    1.5876    7.1545 C.3       1 <0>         0.2509
     24 H10         4.7340    0.5719    6.9637 H         1 <0>         0.0571
     25 O3          3.4395    1.9115    6.1082 O.3       1 <0>        -0.3926
     26 O4          5.4740    2.4777    7.1016 O.3       1 <0>        -0.5773
     27 O5          4.5538    1.3500    9.5538 O.3       1 <0>        -0.5936
     28 O6          1.7235    0.9927    9.7660 O.3       1 <0>        -0.5922
     29 O7          0.3920    0.2885    7.3347 O.3       1 <0>        -0.5871
     30 O8          3.3844    1.6636    1.1978 O.3       1 <0>        -0.5645
     31 O9         -0.0110    0.9628    0.0073 O.3       1 <0>        -0.5889
     32 O10         2.4420    3.6859   -0.0626 O.3       1 <0>        -0.5570
     33 O11        -0.3722    5.4368    2.5203 O.3       1 <0>        -0.5979
     34 H11         1.3835    5.4664    1.4172 H         1 <0>         0.0631
     35 H12        -0.1357    5.4099    0.4604 H         1 <0>         0.0562
     36 H13         1.1513    2.5488    4.9787 H         1 <0>         0.0734
     37 H14         0.4745    0.8869    4.8975 H         1 <0>         0.0802
     38 H15         6.1033    2.5176    6.2003 H         1 <0>         0.4260
     39 H16         5.4987    1.8961    9.6918 H         1 <0>         0.4239
     40 H17         2.2251    0.7783   10.7212 H         1 <0>         0.4238
     41 H18        -0.2915    0.2349    8.1949 H         1 <0>         0.4251
     42 H19         4.0938    1.4518    2.0113 H         1 <0>         0.4146
     43 H20        -0.1111   -0.1326   -0.0006 H         1 <0>         0.4170
     44 H21         3.0878    3.4928   -0.9319 H         1 <0>         0.4060
     45 H22        -0.5418    6.5039    2.7265 H         1 <0>         0.4101
@<TRIPOS>BOND
     1    1    2 1
     2    1   33 1
     3    1   34 1
     4    1   35 1
     5    2    3 1
     6    2   12 1
     7    2    4 1
     8    4    5 1
     9    4    6 1
    10    4   32 1
    11    6    7 1
    12    6    8 1
    13    6   31 1
    14    8    9 1
    15    8   10 1
    16    8   30 1
    17   10   11 1
    18   10   12 1
    19   10   13 1
    20   13   14 1
    21   14   15 1
    22   14   36 1
    23   14   37 1
    24   15   16 1
    25   15   25 1
    26   15   17 1
    27   17   18 1
    28   17   19 1
    29   17   29 1
    30   19   20 1
    31   19   21 1
    32   19   28 1
    33   21   22 1
    34   21   23 1
    35   21   27 1
    36   23   24 1
    37   23   25 1
    38   23   26 1
    39   26   38 1
    40   27   39 1
    41   28   40 1
    42   29   41 1
    43   30   42 1
    44   31   43 1
    45   32   44 1
    46   33   45 1
@<TRIPOS>MOLECULE
ZINC36367438
   50    52     0     0     0
SMALL
USER_CHARGES

@<TRIPOS>ATOM
      1 C1          0.0167    1.3642   -0.4897 C.ar      1 <0>        -0.0317
      2 C2          1.1781    2.0668   -0.2327 C.ar      1 <0>        -0.2359
      3 C3          2.4077    1.4211   -0.2806 C.ar      1 <0>         0.2516
      4 C4          2.4682    0.0690   -0.5872 C.ar      1 <0>        -0.2546
      5 C5          1.2996   -0.6338   -0.8448 C.ar      1 <0>         0.2524
      6 C6          0.0733    0.0181   -0.7952 C.ar      1 <0>        -0.2359
      7 N1          1.3560   -1.9946   -1.1542 N.pl3     1 <0>        -0.7307
      8 C7          0.1219   -2.7358   -1.4261 C.3       1 <0>         0.2763
      9 H1         -0.6595   -2.0563   -1.7664 H         1 <0>         0.1095
     10 C8          0.3778   -3.8357   -2.4870 C.3       1 <0>         0.0358
     11 H2          1.3586   -4.2915   -2.3516 H         1 <0>         0.0869
     12 C9         -0.7577   -4.8402   -2.1499 C.3       1 <0>         0.0892
     13 H3         -0.4744   -5.8545   -2.4311 H         1 <0>         0.0914
     14 C10        -0.8690   -4.7062   -0.6160 C.3       1 <0>         0.0936
     15 H4         -0.3151   -5.5113   -0.1332 H         1 <0>         0.1027
     16 O1         -0.3067   -3.4392   -0.2493 O.3       1 <0>        -0.3701
     17 C11        -2.3390   -4.7628   -0.1953 C.3       1 <0>         0.0774
     18 O2         -2.4269   -4.7553    1.2309 O.3       1 <0>        -0.5695
     19 O3         -1.9787   -4.4603   -2.7877 O.3       1 <0>        -0.5457
     20 O4          0.2323   -3.3180   -3.8110 O.3       1 <0>        -0.5464
     21 N2          3.5815    2.1323   -0.0211 N.pl3     1 <0>        -0.7400
     22 C12         4.8608    1.4248    0.0735 C.3       1 <0>         0.2738
     23 H5          4.6919    0.3966    0.3935 H         1 <0>         0.1143
     24 C13         5.7828    2.1426    1.0825 C.3       1 <0>         0.0395
     25 H6          5.4887    3.1852    1.2031 H         1 <0>         0.0865
     26 C14         7.1709    2.0359    0.3943 C.3       1 <0>         0.0877
     27 H7          7.8180    2.8636    0.6847 H         1 <0>         0.0912
     28 C15         6.7679    2.1393   -1.0983 C.3       1 <0>         0.0898
     29 H8          6.6396    3.1834   -1.3841 H         1 <0>         0.0934
     30 O5          5.5175    1.4359   -1.1994 O.3       1 <0>        -0.3637
     31 C16         7.8256    1.4741   -1.9813 C.3       1 <0>         0.0856
     32 O6          7.4965    1.6806   -3.3564 O.3       1 <0>        -0.5696
     33 O7          7.7901    0.7791    0.6756 O.3       1 <0>        -0.5427
     34 O8          5.7818    1.4673    2.3419 O.3       1 <0>        -0.5468
     35 H9         -0.9380    1.8674   -0.4474 H         1 <0>         0.1221
     36 H10         1.1304    3.1192    0.0055 H         1 <0>         0.1171
     37 H11         3.4225   -0.4351   -0.6255 H         1 <0>         0.1198
     38 H12        -0.8365   -0.5283   -0.9957 H         1 <0>         0.1178
     39 H13         2.2123   -2.4490   -1.1890 H         1 <0>         0.3992
     40 H14        -2.8652   -3.8966   -0.5964 H         1 <0>         0.0605
     41 H15        -2.7928   -5.6750   -0.5826 H         1 <0>         0.0602
     42 H16        -3.3321   -4.7895    1.5694 H         1 <0>         0.3813
     43 H17        -1.9301   -4.4458   -3.7533 H         1 <0>         0.3930
     44 H18         0.8544   -2.6099   -4.0270 H         1 <0>         0.3925
     45 H19         3.5495    3.0946    0.0965 H         1 <0>         0.3976
     46 H20         8.8015    1.9117   -1.7715 H         1 <0>         0.0612
     47 H21         7.8541    0.4049   -1.7711 H         1 <0>         0.0650
     48 H22         8.1255    1.2849   -3.9751 H         1 <0>         0.3826
     49 H23         7.9621    0.6269    1.6149 H         1 <0>         0.3922
     50 H24         4.9150    1.4329    2.7691 H         1 <0>         0.3925
@<TRIPOS>BOND
     1    1    6 ar
     2    1    2 ar
     3    1   35 1
     4    2    3 ar
     5    2   36 1
     6    3    4 ar
     7    3   21 1
     8    4    5 ar
     9    4   37 1
    10    5    6 ar
    11    5    7 1
    12    6   38 1
    13    7    8 1
    14    7   39 1
    15    8    9 1
    16    8   16 1
    17    8   10 1
    18   10   11 1
    19   10   12 1
    20   10   20 1
    21   12   13 1
    22   12   14 1
    23   12   19 1
    24   14   15 1
    25   14   16 1
    26   14   17 1
    27   17   18 1
    28   17   40 1
    29   17   41 1
    30   18   42 1
    31   19   43 1
    32   20   44 1
    33   21   22 1
    34   21   45 1
    35   22   23 1
    36   22   30 1
    37   22   24 1
    38   24   25 1
    39   24   26 1
    40   24   34 1
    41   26   27 1
    42   26   28 1
    43   26   33 1
    44   28   29 1
    45   28   30 1
    46   28   31 1
    47   31   32 1
    48   31   46 1
    49   31   47 1
    50   32   48 1
    51   33   49 1
    52   34   50 1
@<TRIPOS>MOLECULE
ZINC35361010
   50    52     0     0     0
SMALL
USER_CHARGES

@<TRIPOS>ATOM
      1 C1          0.0122    1.3613   -0.4491 C.ar      1 <0>        -0.0307
      2 C2          1.1763    2.0663   -0.2115 C.ar      1 <0>        -0.2351
      3 C3          2.4050    1.4187   -0.2609 C.ar      1 <0>         0.2527
      4 C4          2.4616    0.0625   -0.5492 C.ar      1 <0>        -0.2562
      5 C5          1.2904   -0.6427   -0.7873 C.ar      1 <0>         0.2522
      6 C6          0.0650    0.0110   -0.7364 C.ar      1 <0>        -0.2358
      7 N1          1.3430   -2.0077   -1.0782 N.pl3     1 <0>        -0.7308
      8 C7          0.1060   -2.7513   -1.3294 C.3       1 <0>         0.2762
      9 H1         -0.6777   -2.0759   -1.6725 H         1 <0>         0.1097
     10 C8          0.3519   -3.8660   -2.3771 C.3       1 <0>         0.0360
     11 H2          1.3334   -4.3209   -2.2437 H         1 <0>         0.0866
     12 C9         -0.7815   -4.8647   -2.0166 C.3       1 <0>         0.0891
     13 H3         -0.5015   -5.8831   -2.2861 H         1 <0>         0.0914
     14 C10        -0.8798   -4.7093   -0.4838 C.3       1 <0>         0.0937
     15 H4         -0.3226   -5.5083    0.0054 H         1 <0>         0.1025
     16 O1         -0.3134   -3.4380   -0.1394 O.3       1 <0>        -0.3702
     17 C11        -2.3462   -4.7586   -0.0501 C.3       1 <0>         0.0773
     18 O2         -2.4222   -4.7313    1.3766 O.3       1 <0>        -0.5697
     19 O3         -2.0076   -4.4925   -2.6493 O.3       1 <0>        -0.5456
     20 O4          0.1958   -3.3666   -3.7068 O.3       1 <0>        -0.5462
     21 N2          3.5815    2.1323   -0.0211 N.pl3     1 <0>        -0.7357
     22 C12         4.8608    1.4248    0.0735 C.3       1 <0>         0.2693
     23 H5          4.6919    0.3966    0.3935 H         1 <0>         0.1138
     24 C13         5.7828    2.1426    1.0825 C.3       1 <0>         0.0350
     25 H6          5.7848    1.6255    2.0421 H         1 <0>         0.0903
     26 C14         7.1709    2.0359    0.3943 C.3       1 <0>         0.0862
     27 H7          7.6429    1.0770    0.6082 H         1 <0>         0.0940
     28 C15         6.7679    2.1393   -1.0983 C.3       1 <0>         0.0911
     29 H8          6.6396    3.1834   -1.3841 H         1 <0>         0.0925
     30 O5          5.5175    1.4359   -1.1994 O.3       1 <0>        -0.3646
     31 C16         7.8256    1.4741   -1.9813 C.3       1 <0>         0.0811
     32 O6          7.4965    1.6806   -3.3564 O.3       1 <0>        -0.5642
     33 O7          8.0196    3.1205    0.7758 O.3       1 <0>        -0.5366
     34 O8          5.3943    3.5082    1.2441 O.3       1 <0>        -0.5367
     35 H9         -0.9417    1.8660   -0.4057 H         1 <0>         0.1227
     36 H10         1.1316    3.1219    0.0124 H         1 <0>         0.1181
     37 H11         3.4152   -0.4431   -0.5885 H         1 <0>         0.1192
     38 H12        -0.8469   -0.5371   -0.9216 H         1 <0>         0.1179
     39 H13         2.1985   -2.4634   -1.1139 H         1 <0>         0.3987
     40 H14        -2.8751   -3.8975   -0.4586 H         1 <0>         0.0607
     41 H15        -2.8041   -5.6757   -0.4208 H         1 <0>         0.0603
     42 H16        -3.3245   -4.7600    1.7231 H         1 <0>         0.3815
     43 H17        -1.9671   -4.4913   -3.6154 H         1 <0>         0.3931
     44 H18         0.8167   -2.6621   -3.9378 H         1 <0>         0.3925
     45 H19         3.5514    3.0962    0.0828 H         1 <0>         0.4003
     46 H20         8.8016    1.9117   -1.7715 H         1 <0>         0.0664
     47 H21         7.8541    0.4049   -1.7711 H         1 <0>         0.0534
     48 H22         8.1255    1.2849   -3.9751 H         1 <0>         0.3823
     49 H23         8.2101    3.1564    1.7231 H         1 <0>         0.3879
     50 H24         4.4989    3.6241    1.5905 H         1 <0>         0.3827
@<TRIPOS>BOND
     1    1    6 ar
     2    1    2 ar
     3    1   35 1
     4    2    3 ar
     5    2   36 1
     6    3    4 ar
     7    3   21 1
     8    4    5 ar
     9    4   37 1
    10    5    6 ar
    11    5    7 1
    12    6   38 1
    13    7    8 1
    14    7   39 1
    15    8    9 1
    16    8   16 1
    17    8   10 1
    18   10   11 1
    19   10   12 1
    20   10   20 1
    21   12   13 1
    22   12   14 1
    23   12   19 1
    24   14   15 1
    25   14   16 1
    26   14   17 1
    27   17   18 1
    28   17   40 1
    29   17   41 1
    30   18   42 1
    31   19   43 1
    32   20   44 1
    33   21   22 1
    34   21   45 1
    35   22   23 1
    36   22   30 1
    37   22   24 1
    38   24   25 1
    39   24   26 1
    40   24   34 1
    41   26   27 1
    42   26   28 1
    43   26   33 1
    44   28   29 1
    45   28   30 1
    46   28   31 1
    47   31   32 1
    48   31   46 1
    49   31   47 1
    50   32   48 1
    51   33   49 1
    52   34   50 1
@<TRIPOS>MOLECULE
ZINC08836062
   55    58     0     0     0
SMALL
USER_CHARGES
4-dimethylamino-3,5,10,12,12a-pentahydroxy-6-methylene-1,11-dioxo-4,4a,5,5a-tetrahydrotetracene-2-carboxamide
@<TRIPOS>ATOM
      1 C1         -1.0210   -2.0648    0.0302 C.3       1 <0>        -0.0568
      2 C2         -1.5725   -0.2881    1.5800 C.3       1 <0>        -0.0596
      3 C3          0.1602    0.0460   -0.0779 C.3       1 <0>         0.0708
      4 H1          0.5439   -0.3400   -1.0224 H         1 <0>         0.1843
      5 C4         -0.0758    1.5520   -0.2160 C.3       1 <0>        -0.0830
      6 H2         -0.6609    1.9252    0.6244 H         1 <0>         0.1469
      7 C5         -0.8150    1.7831   -1.5498 C.3       1 <0>         0.1077
      8 H3         -1.8357    1.4075   -1.4779 H         1 <0>         0.0816
      9 C6         -0.0538    1.0162   -2.6301 C.3       1 <0>        -0.0361
     10 H4         -0.1117   -0.0478   -2.4010 H         1 <0>         0.0931
     11 C7         -0.6719    1.2665   -3.9849 C.2       1 <0>        -0.0787
     12 C8         -1.8601    1.8459   -4.1059 C.2       1 <0>        -0.1697
     13 C9          0.1013    0.8389   -5.1722 C.ar      1 <0>        -0.0084
     14 C10        -0.5264    0.4658   -6.3518 C.ar      1 <0>        -0.1245
     15 C11         0.2334    0.0545   -7.4322 C.ar      1 <0>        -0.0672
     16 C12         1.6130    0.0110   -7.3460 C.ar      1 <0>        -0.1502
     17 C13         2.2608    0.3877   -6.1782 C.ar      1 <0>         0.1728
     18 C14         1.5091    0.8142   -5.0789 C.ar      1 <0>        -0.1834
     19 C15         2.1602    1.2531   -3.8336 C.2       1 <0>         0.4301
     20 O1          3.3612    1.4571   -3.8155 O.2       1 <0>        -0.4141
     21 C16         1.3909    1.4402   -2.6508 C.2       1 <0>        -0.2342
     22 C17         1.9710    2.0030   -1.5812 C.2       1 <0>         0.1454
     23 C18         1.2624    2.2818   -0.3018 C.3       1 <0>         0.1246
     24 C19         2.1020    1.9759    0.9046 C.2       1 <0>         0.3781
     25 O2          2.7984    2.8345    1.4056 O.2       1 <0>        -0.3833
     26 C20         2.0665    0.6233    1.4669 C.2       1 <0>        -0.2975
     27 C21         1.1357   -0.2765    1.0105 C.2       1 <0>         0.1703
     28 O3          1.0990   -1.4978    1.5637 O.3       1 <0>        -0.4438
     29 C22         3.0232    0.2317    2.5143 C.2       1 <0>         0.5588
     30 O4          2.8213    0.5476    3.6714 O.2       1 <0>        -0.4932
     31 N1          4.1231   -0.4771    2.1913 N.am      1 <0>        -0.8372
     32 O5          0.9826    3.6830   -0.2793 O.3       1 <0>        -0.4873
     33 O6          3.2744    2.3362   -1.6692 O.3       1 <0>        -0.4045
     34 O7          3.6147    0.3425   -6.1033 O.3       1 <0>        -0.4829
     35 O8         -0.8296    3.1774   -1.8622 O.3       1 <0>        -0.5157
     36 H5         -0.3756   -2.4894    0.7992 H         1 <0>         0.1456
     37 H6         -2.0139   -2.5086    0.1034 H         1 <0>         0.1352
     38 H7         -0.6008   -2.2749   -0.9534 H         1 <0>         0.1250
     39 H8         -1.7037    0.7900    1.6723 H         1 <0>         0.1266
     40 H9         -2.5214   -0.7877    1.7749 H         1 <0>         0.1407
     41 H10        -0.8287   -0.6267    2.3013 H         1 <0>         0.1310
     42 H11        -2.4055    2.1489   -3.2243 H         1 <0>         0.1145
     43 H12        -2.2815    2.0143   -5.0860 H         1 <0>         0.1251
     44 H13        -1.6034    0.4960   -6.4262 H         1 <0>         0.1371
     45 H14        -0.2550   -0.2354   -8.3508 H         1 <0>         0.1397
     46 H15         2.1918   -0.3190   -8.1960 H         1 <0>         0.1409
     47 H16         1.8036   -1.5651    2.2701 H         1 <0>         0.4287
     48 H17         4.2481   -0.7912    1.2822 H         1 <0>         0.4080
     49 H18         4.7898   -0.6731    2.8681 H         1 <0>         0.4203
     50 H19         1.7700    4.2421   -0.3294 H         1 <0>         0.3974
     51 H20         3.5735    2.7429   -0.8060 H         1 <0>         0.3923
     52 H21         4.0512    1.1616   -6.3745 H         1 <0>         0.4033
     53 H22        -1.2807    3.3901   -2.6907 H         1 <0>         0.3908
     54 N2         -1.1386   -0.6015    0.2022 N.4       1 <0>        -0.3914
     55 H23        -1.8390   -0.2433   -0.4576 H         1 <0>         0.4360
@<TRIPOS>BOND
     1    1   36 1
     2    1   37 1
     3    1   38 1
     4    1   54 1
     5    2   39 1
     6    2   40 1
     7    2   41 1
     8    2   54 1
     9    3    4 1
    10    3   27 1
    11    3    5 1
    12    3   54 1
    13    5    6 1
    14    5   23 1
    15    5    7 1
    16    7    8 1
    17    7    9 1
    18    7   35 1
    19    9   10 1
    20    9   21 1
    21    9   11 1
    22   11   12 2
    23   11   13 1
    24   12   42 1
    25   12   43 1
    26   13   18 ar
    27   13   14 ar
    28   14   15 ar
    29   14   44 1
    30   15   16 ar
    31   15   45 1
    32   16   17 ar
    33   16   46 1
    34   17   18 ar
    35   17   34 1
    36   18   19 1
    37   19   20 2
    38   19   21 1
    39   21   22 2
    40   22   23 1
    41   22   33 1
    42   23   24 1
    43   23   32 1
    44   24   25 2
    45   24   26 1
    46   26   27 2
    47   26   29 1
    48   27   28 1
    49   28   47 1
    50   29   30 2
    51   29   31 am
    52   31   48 1
    53   31   49 1
    54   32   50 1
    55   33   51 1
    56   34   52 1
    57   35   53 1
    58   54   55 1
@<TRIPOS>MOLECULE
ZINC15276600
   30    30     0     0     0
SMALL
USER_CHARGES
2-[[(4S,5S)-5-(N'-(diaminomethylene)hydrazino)-2-oxo-imidazolidin-4-yl]amino]guanidine
@<TRIPOS>ATOM
      1 C1         -1.2580   -0.5659    0.6885 C.3       1 <0>         0.3941
      2 H1         -1.8985    0.2450    1.0354 H         1 <0>         0.1092
      3 C2          0.0021   -0.0041    0.0020 C.3       1 <0>         0.3931
      4 H2          0.9023   -0.3761    0.4911 H         1 <0>         0.1077
      5 N1         -0.0857   -0.5139   -1.3745 N.am      1 <0>        -0.7450
      6 C3         -1.1978   -1.2498   -1.5011 C.2       1 <0>         0.6976
      7 O1         -1.5185   -1.7931   -2.5405 O.2       1 <0>        -0.5919
      8 N2         -1.9248   -1.3327   -0.3791 N.am      1 <0>        -0.7460
      9 N3         -0.0178    1.4608    0.0101 N.pl3     1 <0>        -0.6533
     10 N4          1.1858    2.1777    0.0024 N.2       1 <0>        -0.3877
     11 C4          1.1682    3.4765    0.0096 C.2       1 <0>         0.5636
     12 N5         -0.0431    4.1541    0.0248 N.pl3     1 <0>        -0.8946
     13 N6          2.3608    4.1869    0.0020 N.pl3     1 <0>        -0.8506
     14 N7         -0.8890   -1.4436    1.8019 N.pl3     1 <0>        -0.6527
     15 N8         -1.7359   -1.5612    2.9117 N.2       1 <0>        -0.3878
     16 C5         -1.4087   -2.3394    3.8989 C.2       1 <0>         0.5640
     17 N9         -0.2199   -3.0546    3.8542 N.pl3     1 <0>        -0.8946
     18 N10        -2.2478   -2.4558    4.9985 N.pl3     1 <0>        -0.8505
     19 H3          0.5592   -0.3442   -2.0789 H         1 <0>         0.4254
     20 H4         -2.7575   -1.8209   -0.2838 H         1 <0>         0.4252
     21 H5         -0.8643    1.9343    0.0167 H         1 <0>         0.3654
     22 H6         -0.8765    3.6577    0.0301 H         1 <0>         0.4041
     23 H7         -0.0563    5.1240    0.0301 H         1 <0>         0.3964
     24 H8          3.2073    3.7133   -0.0086 H         1 <0>         0.4160
     25 H9          2.3476    5.1568    0.0073 H         1 <0>         0.4055
     26 H10        -0.0582   -1.9435    1.7707 H         1 <0>         0.3656
     27 H11         0.3665   -2.9733    3.0858 H         1 <0>         0.4041
     28 H12         0.0245   -3.6358    4.5914 H         1 <0>         0.3964
     29 H13        -3.0786   -1.9560    5.0297 H         1 <0>         0.4161
     30 H14        -2.0035   -3.0370    5.7357 H         1 <0>         0.4055
@<TRIPOS>BOND
     1    1    2 1
     2    1    8 1
     3    1    3 1
     4    1   14 1
     5    3    4 1
     6    3    5 1
     7    3    9 1
     8    5    6 am
     9    5   19 1
    10    6    7 2
    11    6    8 am
    12    8   20 1
    13    9   10 1
    14    9   21 1
    15   10   11 2
    16   11   12 1
    17   11   13 1
    18   12   22 1
    19   12   23 1
    20   13   24 1
    21   13   25 1
    22   14   15 1
    23   14   26 1
    24   15   16 2
    25   16   17 1
    26   16   18 1
    27   17   27 1
    28   17   28 1
    29   18   29 1
    30   18   30 1
@<TRIPOS>MOLECULE
ZINC37538899
   54    57     0     0     0
SMALL
USER_CHARGES

@<TRIPOS>ATOM
      1 C1          0.2485    0.9678   -0.3410 C.ar      1 <0>        -0.0808
      2 C2          1.4622    1.6286   -0.3923 C.ar      1 <0>        -0.1303
      3 C3          2.6418    0.9060   -0.4641 C.ar      1 <0>         0.0924
      4 C4          2.6019   -0.4853   -0.4845 C.ar      1 <0>         0.0827
      5 C5          1.3828   -1.1410   -0.4329 C.ar      1 <0>        -0.1118
      6 C6          0.2090   -0.4136   -0.3614 C.ar      1 <0>        -0.0845
      7 C7         -1.1164   -1.1287   -0.3053 C.3       1 <0>         0.1457
      8 H1         -0.9973   -2.1454   -0.6798 H         1 <0>         0.0927
      9 C8         -1.6142   -1.1723    1.1468 C.3       1 <0>        -0.1923
     10 C9         -2.9622   -1.8706    1.1384 C.2       1 <0>         0.4003
     11 O1         -3.2761   -2.6622    2.0033 O.2       1 <0>        -0.4243
     12 C10        -3.8661   -1.5393    0.0314 C.ar      1 <0>        -0.2946
     13 C11        -3.3625   -0.8257   -1.0723 C.ar      1 <0>         0.2170
     14 C12        -4.2081   -0.5211   -2.1239 C.ar      1 <0>        -0.2040
     15 C13        -5.5408   -0.9118   -2.0852 C.ar      1 <0>         0.2191
     16 C14        -6.0433   -1.6102   -0.9945 C.ar      1 <0>        -0.1796
     17 C15        -5.2144   -1.9275    0.0671 C.ar      1 <0>         0.2500
     18 O2         -5.7012   -2.6085    1.1340 O.3       1 <0>        -0.4725
     19 C16        -7.4924   -2.0230   -0.9677 C.3       1 <0>         0.1523
     20 H2         -7.6428   -2.7717   -0.1898 H         1 <0>         0.0980
     21 C17        -8.3663   -0.8005   -0.6754 C.3       1 <0>         0.0941
     22 H3         -8.1862   -0.0351   -1.4304 H         1 <0>         0.0865
     23 C18        -9.8402   -1.2162   -0.7094 C.3       1 <0>         0.0368
     24 H4        -10.4699   -0.3396   -0.5575 H         1 <0>         0.0685
     25 C19       -10.1518   -1.8409   -2.0728 C.3       1 <0>         0.0493
     26 H5        -10.0078   -1.0966   -2.8560 H         1 <0>         0.0832
     27 C20        -9.2090   -3.0233   -2.3111 C.3       1 <0>         0.1070
     28 H6         -9.3974   -3.4452   -3.2983 H         1 <0>         0.1194
     29 O3         -7.8546   -2.5739   -2.2356 O.3       1 <0>        -0.3453
     30 C21        -9.4519   -4.0927   -1.2442 C.3       1 <0>         0.0329
     31 O4         -8.6839   -5.2574   -1.5536 O.3       1 <0>        -0.5707
     32 O5        -11.5059   -2.2971   -2.0908 O.3       1 <0>        -0.5538
     33 O6        -10.0917   -2.1703    0.3243 O.3       1 <0>        -0.5411
     34 O7         -8.0448   -0.2816    0.6167 O.3       1 <0>        -0.5479
     35 O8         -6.3600   -0.6078   -3.1230 O.3       1 <0>        -0.4859
     36 O9         -2.0675   -0.4328   -1.1108 O.3       1 <0>        -0.2965
     37 O10         3.7573   -1.1991   -0.5554 O.3       1 <0>        -0.4851
     38 O11         3.8362    1.5543   -0.5150 O.3       1 <0>        -0.4870
     39 H7         -0.6702    1.5323   -0.2805 H         1 <0>         0.1369
     40 H8          1.4904    2.7081   -0.3767 H         1 <0>         0.1387
     41 H9          1.3492   -2.2204   -0.4486 H         1 <0>         0.1383
     42 H10        -0.9105   -1.7312    1.7637 H         1 <0>         0.1152
     43 H11        -1.7236   -0.1587    1.5323 H         1 <0>         0.1163
     44 H12        -3.8311    0.0226   -2.9776 H         1 <0>         0.1496
     45 H13        -6.0519   -2.0425    1.8352 H         1 <0>         0.4039
     46 H14        -9.1521   -3.7081   -0.2694 H         1 <0>         0.0874
     47 H15       -10.5107   -4.3508   -1.2230 H         1 <0>         0.0585
     48 H16        -8.7892   -5.9783   -0.9178 H         1 <0>         0.3800
     49 H17       -12.1581   -1.5990   -1.9415 H         1 <0>         0.3845
     50 H18       -11.0077   -2.4780    0.3612 H         1 <0>         0.3815
     51 H19        -8.5618    0.4959    0.8681 H         1 <0>         0.3824
     52 H20        -6.3851   -1.2827   -3.8151 H         1 <0>         0.4064
     53 H21         4.1367   -1.4199    0.3062 H         1 <0>         0.3897
     54 H22         4.2268    1.7279    0.3524 H         1 <0>         0.3907
@<TRIPOS>BOND
     1    1    6 ar
     2    1    2 ar
     3    1   39 1
     4    2    3 ar
     5    2   40 1
     6    3    4 ar
     7    3   38 1
     8    4    5 ar
     9    4   37 1
    10    5    6 ar
    11    5   41 1
    12    6    7 1
    13    7    8 1
    14    7   36 1
    15    7    9 1
    16    9   10 1
    17    9   42 1
    18    9   43 1
    19   10   11 2
    20   10   12 1
    21   12   17 ar
    22   12   13 ar
    23   13   14 ar
    24   13   36 1
    25   14   15 ar
    26   14   44 1
    27   15   16 ar
    28   15   35 1
    29   16   17 ar
    30   16   19 1
    31   17   18 1
    32   18   45 1
    33   19   20 1
    34   19   29 1
    35   19   21 1
    36   21   22 1
    37   21   23 1
    38   21   34 1
    39   23   24 1
    40   23   25 1
    41   23   33 1
    42   25   26 1
    43   25   27 1
    44   25   32 1
    45   27   28 1
    46   27   29 1
    47   27   30 1
    48   30   31 1
    49   30   46 1
    50   30   47 1
    51   31   48 1
    52   32   49 1
    53   33   50 1
    54   34   51 1
    55   35   52 1
    56   37   53 1
    57   38   54 1
@<TRIPOS>MOLECULE
ZINC43509402
   66    67     0     0     0
SMALL
USER_CHARGES

@<TRIPOS>ATOM
      1 C1          1.8421    1.3756   -1.3910 C.3       1 <0>        -0.1536
      2 C2          1.2544    0.0196   -0.9947 C.3       1 <0>         0.0703
      3 H1          0.3286   -0.1499   -1.5444 H         1 <0>         0.0813
      4 C3          2.2566   -1.0884   -1.3287 C.3       1 <0>         0.1266
      5 C4          1.6866   -2.4356   -0.8744 C.3       1 <0>         0.1525
      6 C5          1.3744   -2.3664    0.6236 C.3       1 <0>         0.1172
      7 C6          0.4062   -1.2090    0.8822 C.3       1 <0>         0.2733
      8 O1          0.9843    0.0090    0.4085 O.3       1 <0>        -0.3692
      9 C7          0.1362   -1.0955    2.3839 C.3       1 <0>         0.0575
     10 O2         -0.7675   -0.0151    2.6250 O.3       1 <0>        -0.5598
     11 O3         -0.8222   -1.4525    0.1939 O.3       1 <0>        -0.5346
     12 C8          0.7322   -3.6803    1.0733 C.3       1 <0>        -0.1946
     13 O4          2.5834   -2.1499    1.3540 O.3       1 <0>        -0.5125
     14 C9          2.7143   -3.5394   -1.1325 C.3       1 <0>        -0.1667
     15 O5          0.4881   -2.7168   -1.6000 O.3       1 <0>        -0.3190
     16 C10         0.1870   -4.1095   -1.7076 C.3       1 <0>         0.2111
     17 H2          0.3318   -4.5886   -0.7393 H         1 <0>         0.1074
     18 C11        -1.2678   -4.2845   -2.1513 C.3       1 <0>         0.0999
     19 C12        -1.4487   -3.6613   -3.5388 C.3       1 <0>         0.1750
     20 C13        -0.4617   -4.3134   -4.5119 C.3       1 <0>         0.1232
     21 C14         0.9619   -4.1373   -3.9771 C.3       1 <0>         0.0666
     22 H3          1.2018   -3.0753   -3.9247 H         1 <0>         0.0964
     23 O6          1.0535   -4.7115   -2.6714 O.3       1 <0>        -0.3648
     24 C15         1.9489   -4.8378   -4.9130 C.3       1 <0>         0.0755
     25 O7          3.2846   -4.5850   -4.4723 O.3       1 <0>        -0.5586
     26 C16        -0.5789   -3.6453   -5.8833 C.3       1 <0>        -0.1778
     27 O8         -0.7581   -5.7062   -4.6310 O.3       1 <0>        -0.5406
     28 C17        -2.8797   -3.9003   -4.0245 C.3       1 <0>        -0.1758
     29 O9         -1.1940   -2.2570   -3.4690 O.3       1 <0>        -0.5361
     30 C18        -1.6080   -5.7750   -2.2119 C.3       1 <0>        -0.1796
     31 O10        -2.1330   -3.6335   -1.2188 O.3       1 <0>        -0.5339
     32 C19         2.5002   -1.1194   -2.8389 C.3       1 <0>        -0.1804
     33 O11         3.4890   -0.8380   -0.6501 O.3       1 <0>        -0.5274
     34 H4          2.7218    1.5823   -0.7815 H         1 <0>         0.0640
     35 H5          2.1256    1.3552   -2.4432 H         1 <0>         0.0743
     36 H6          1.0974    2.1552   -1.2304 H         1 <0>         0.0660
     37 H7         -0.3040   -2.0249    2.7452 H         1 <0>         0.0671
     38 H8          1.0733   -0.9092    2.9085 H         1 <0>         0.0575
     39 H9         -0.9841    0.1157    3.5583 H         1 <0>         0.3838
     40 H10        -1.4843   -0.7579    0.3133 H         1 <0>         0.3818
     41 H11         1.2982   -4.5189    0.6676 H         1 <0>         0.0731
     42 H12         0.7356   -3.7324    2.1621 H         1 <0>         0.0647
     43 H13        -0.2947   -3.7257    0.7106 H         1 <0>         0.0809
     44 H14         2.4601   -2.0954    2.3115 H         1 <0>         0.3665
     45 H15         3.6261   -3.3243   -0.5754 H         1 <0>         0.0730
     46 H16         2.3077   -4.4973   -0.8082 H         1 <0>         0.0569
     47 H17         2.9410   -3.5828   -2.1978 H         1 <0>         0.0869
     48 H18         1.7600   -5.9112   -4.9028 H         1 <0>         0.0530
     49 H19         1.8223   -4.4562   -5.9261 H         1 <0>         0.0623
     50 H20         3.9662   -4.9349   -5.0622 H         1 <0>         0.3804
     51 H21        -0.3497   -2.5836   -5.7910 H         1 <0>         0.0799
     52 H22         0.1238   -4.1098   -6.5751 H         1 <0>         0.0606
     53 H23        -1.5942   -3.7663   -6.2609 H         1 <0>         0.0720
     54 H24        -0.1708   -6.1833   -5.2332 H         1 <0>         0.3757
     55 H25        -3.5813   -3.4426   -3.3271 H         1 <0>         0.0664
     56 H26        -3.0072   -3.4564   -5.0119 H         1 <0>         0.0625
     57 H27        -3.0702   -4.9720   -4.0807 H         1 <0>         0.0757
     58 H28        -1.7794   -1.7806   -2.8644 H         1 <0>         0.3902
     59 H29        -1.6412   -6.1815   -1.2011 H         1 <0>         0.0489
     60 H30        -2.5794   -5.9068   -2.6885 H         1 <0>         0.0731
     61 H31        -0.8460   -6.2985   -2.7892 H         1 <0>         0.1012
     62 H32        -2.0673   -3.9751   -0.3166 H         1 <0>         0.3750
     63 H33         2.9905   -0.1959   -3.1468 H         1 <0>         0.0575
     64 H34         3.1365   -1.9689   -3.0869 H         1 <0>         0.0727
     65 H35         1.5469   -1.2154   -3.3587 H         1 <0>         0.0771
     66 H36         3.9045    0.0026   -0.8864 H         1 <0>         0.3703
@<TRIPOS>BOND
     1    1    2 1
     2    1   34 1
     3    1   35 1
     4    1   36 1
     5    2    3 1
     6    2    8 1
     7    2    4 1
     8    4    5 1
     9    4   32 1
    10    4   33 1
    11    5    6 1
    12    5   14 1
    13    5   15 1
    14    6    7 1
    15    6   12 1
    16    6   13 1
    17    7    8 1
    18    7    9 1
    19    7   11 1
    20    9   10 1
    21    9   37 1
    22    9   38 1
    23   10   39 1
    24   11   40 1
    25   12   41 1
    26   12   42 1
    27   12   43 1
    28   13   44 1
    29   14   45 1
    30   14   46 1
    31   14   47 1
    32   15   16 1
    33   16   17 1
    34   16   23 1
    35   16   18 1
    36   18   19 1
    37   18   30 1
    38   18   31 1
    39   19   20 1
    40   19   28 1
    41   19   29 1
    42   20   21 1
    43   20   26 1
    44   20   27 1
    45   21   22 1
    46   21   23 1
    47   21   24 1
    48   24   25 1
    49   24   48 1
    50   24   49 1
    51   25   50 1
    52   26   51 1
    53   26   52 1
    54   26   53 1
    55   27   54 1
    56   28   55 1
    57   28   56 1
    58   28   57 1
    59   29   58 1
    60   30   59 1
    61   30   60 1
    62   30   61 1
    63   31   62 1
    64   32   63 1
    65   32   64 1
    66   32   65 1
    67   33   66 1
@<TRIPOS>MOLECULE
ZINC04096704
   45    46     0     0     0
SMALL
USER_CHARGES

@<TRIPOS>ATOM
      1 C1         -0.0187    1.5258    0.0104 C.3       1 <0>         0.0747
      2 C2          0.0021   -0.0041    0.0020 C.3       1 <0>         0.1062
      3 H1          0.5883   -0.3550   -0.8473 H         1 <0>         0.0880
      4 C3         -1.4298   -0.5335   -0.1124 C.3       1 <0>         0.0948
      5 H2         -2.0272   -0.1498    0.7147 H         1 <0>         0.0751
      6 C4         -1.4057   -2.0641   -0.0595 C.3       1 <0>         0.0849
      7 H3         -0.8501   -2.4498   -0.9143 H         1 <0>         0.0833
      8 C5         -0.7236   -2.5086    1.2379 C.3       1 <0>         0.0588
      9 H4         -1.3066   -2.1648    2.0923 H         1 <0>         0.0880
     10 C6          0.6811   -1.9029    1.3002 C.3       1 <0>         0.2271
     11 H5          1.1554   -2.1809    2.2413 H         1 <0>         0.1069
     12 O1          0.5890   -0.4794    1.2152 O.3       1 <0>        -0.3732
     13 O2          1.4614   -2.3960    0.2093 O.3       1 <0>        -0.5647
     14 O3         -0.6318   -3.9344    1.2650 O.3       1 <0>        -0.5494
     15 O4         -2.7437   -2.5648   -0.0939 O.3       1 <0>        -0.5623
     16 O5         -1.9994   -0.1061   -1.3513 O.3       1 <0>        -0.5515
     17 O6          1.3220    2.0204    0.0003 O.3       1 <0>        -0.3807
     18 C7          1.4155    3.4463    0.0071 C.3       1 <0>         0.2155
     19 C8          2.8650    3.8641   -0.2538 C.3       1 <0>         0.0651
     20 C9          3.7521    3.3348    0.8772 C.3       1 <0>         0.0868
     21 C10         3.2260    3.8647    2.2146 C.3       1 <0>         0.0907
     22 C11         1.7626    3.4469    2.3801 C.3       1 <0>         0.1030
     23 O7          0.9990    3.9452    1.2798 O.3       1 <0>        -0.3634
     24 C12         1.2119    4.0234    3.6860 C.3       1 <0>         0.0886
     25 O8         -0.1155    3.5386    3.8983 O.3       1 <0>        -0.5671
     26 O9          3.3207    5.2905    2.2338 O.3       1 <0>        -0.5503
     27 O10         5.0950    3.7821    0.6807 O.3       1 <0>        -0.5627
     28 O11         3.3027    3.3178   -1.4996 O.3       1 <0>        -0.5527
     29 H6         -0.5459    1.8868   -0.8726 H         1 <0>         0.0788
     30 H7         -0.5289    1.8773    0.9072 H         1 <0>         0.0699
     31 H8          2.3653   -2.0531    0.1857 H         1 <0>         0.3886
     32 H9         -0.2092   -4.2863    2.0604 H         1 <0>         0.3865
     33 H10        -2.8037   -3.5294   -0.0635 H         1 <0>         0.3932
     34 H11        -2.9080   -0.4062   -1.4908 H         1 <0>         0.3935
     35 H12         0.7730    3.8564   -0.7721 H         1 <0>         0.1056
     36 H13         2.9299    4.9516   -0.2890 H         1 <0>         0.0932
     37 H14         3.7263    2.2451    0.8812 H         1 <0>         0.0814
     38 H15         3.8181    3.4485    3.0297 H         1 <0>         0.0802
     39 H16         1.6958    2.3592    2.4060 H         1 <0>         0.0935
     40 H17         1.8481    3.7157    4.5158 H         1 <0>         0.0615
     41 H18         1.1958    5.1115    3.6245 H         1 <0>         0.0661
     42 H19        -0.5280    3.8641    4.7100 H         1 <0>         0.3824
     43 H20         4.2214    5.6263    2.1288 H         1 <0>         0.3872
     44 H21         5.4895    3.4884   -0.1519 H         1 <0>         0.3932
     45 H22         2.7814    3.6074   -2.2608 H         1 <0>         0.3859
@<TRIPOS>BOND
     1    1    2 1
     2    1   17 1
     3    1   29 1
     4    1   30 1
     5    2    3 1
     6    2   12 1
     7    2    4 1
     8    4    5 1
     9    4    6 1
    10    4   16 1
    11    6    7 1
    12    6    8 1
    13    6   15 1
    14    8    9 1
    15    8   10 1
    16    8   14 1
    17   10   11 1
    18   10   12 1
    19   10   13 1
    20   13   31 1
    21   14   32 1
    22   15   33 1
    23   16   34 1
    24   17   18 1
    25   18   23 1
    26   18   19 1
    27   18   35 1
    28   19   20 1
    29   19   28 1
    30   19   36 1
    31   20   21 1
    32   20   27 1
    33   20   37 1
    34   21   22 1
    35   21   26 1
    36   21   38 1
    37   22   23 1
    38   22   24 1
    39   22   39 1
    40   24   25 1
    41   24   40 1
    42   24   41 1
    43   25   42 1
    44   26   43 1
    45   27   44 1
    46   28   45 1
@<TRIPOS>MOLECULE
ZINC11905424
   39    41     0     0     0
SMALL
USER_CHARGES
2-[[2-[(5-oxo-4H-1,2,4-triazin-3-yl)sulfanyl]acetyl]amino]-4,5,6,7-tetrahydrobenzothiophene-3-carboxamide
@<TRIPOS>ATOM
      1 C1          1.2190    2.0318    0.0013 C.2       1 <0>        -0.0104
      2 C2         -0.0163    1.3487    0.0095 C.2       1 <0>         0.5025
      3 O1         -1.0709    1.9611    0.0178 O.2       1 <0>        -0.4986
      4 N1          0.0021   -0.0041    0.0020 N.am      1 <0>        -0.6073
      5 H1         -0.8249   -0.5110    0.0069 H         1 <0>         0.4287
      6 C3          1.2082   -0.6390   -0.0129 C.2       1 <0>         0.2914
      7 N2          2.3321    0.0586   -0.0195 N.2       1 <0>        -0.3439
      8 N3          2.3364    1.3434   -0.0126 N.2       1 <0>        -0.1732
      9 S1          1.2707   -2.3999   -0.0230 S.3       1 <0>         0.1149
     10 C4          3.0631   -2.6507   -0.0414 C.3       1 <0>        -0.1493
     11 C5          3.3636   -4.1274   -0.0522 C.2       1 <0>         0.5295
     12 O2          2.4553   -4.9311   -0.0479 O.2       1 <0>        -0.4840
     13 N4          4.6417   -4.5550   -0.0667 N.am      1 <0>        -0.6102
     14 C6          4.9181   -5.9137   -0.0767 C.2       1 <0>         0.0637
     15 C7          6.1554   -6.5417   -0.0975 C.2       1 <0>        -0.2176
     16 C8          6.1711   -7.9946   -0.1008 C.2       1 <0>        -0.0674
     17 C9          4.9552   -8.5830   -0.0928 C.2       1 <0>        -0.2020
     18 S2          3.8026   -7.2394   -0.0737 S.3       1 <0>         0.2336
     19 C10         4.6625  -10.0517   -0.0996 C.3       1 <0>        -0.0374
     20 C11         5.9447  -10.7986   -0.4948 C.3       1 <0>        -0.1145
     21 C12         7.1101  -10.2509    0.3341 C.3       1 <0>        -0.1201
     22 C13         7.4463   -8.8285   -0.1174 C.3       1 <0>        -0.0616
     23 C14         7.4007   -5.7679   -0.1117 C.2       1 <0>         0.5826
     24 O3          7.9330   -5.4522    0.9363 O.2       1 <0>        -0.5310
     25 N5          7.9560   -5.4061   -1.2853 N.am      1 <0>        -0.8471
     26 H2          1.2445    3.1115    0.0065 H         1 <0>         0.2023
     27 H3          3.4857   -2.1874   -0.9330 H         1 <0>         0.1453
     28 H4          3.5027   -2.1970    0.8469 H         1 <0>         0.1457
     29 H5          5.3681   -3.9122   -0.0702 H         1 <0>         0.4244
     30 H6          4.3451  -10.3675    0.8942 H         1 <0>         0.0841
     31 H7          3.8747  -10.2657   -0.8219 H         1 <0>         0.0824
     32 H8          5.8234  -11.8634   -0.2956 H         1 <0>         0.0748
     33 H9          6.1444  -10.6458   -1.5554 H         1 <0>         0.0686
     34 H10         6.8314  -10.2400    1.3878 H         1 <0>         0.0680
     35 H11         7.9832  -10.8889    0.1971 H         1 <0>         0.0712
     36 H12         8.1772   -8.3921    0.5634 H         1 <0>         0.0760
     37 H13         7.8563   -8.8529   -1.1271 H         1 <0>         0.0775
     38 H14         7.5318   -5.6577   -2.1205 H         1 <0>         0.4038
     39 H15         8.7798   -4.8942   -1.2947 H         1 <0>         0.4045
@<TRIPOS>BOND
     1    1    8 2
     2    1    2 1
     3    1   26 1
     4    2    3 2
     5    2    4 am
     6    4    5 1
     7    4    6 1
     8    6    7 2
     9    6    9 1
    10    7    8 1
    11    9   10 1
    12   10   11 1
    13   10   27 1
    14   10   28 1
    15   11   12 2
    16   11   13 am
    17   13   14 1
    18   13   29 1
    19   14   18 1
    20   14   15 2
    21   15   16 1
    22   15   23 1
    23   16   22 1
    24   16   17 2
    25   17   18 1
    26   17   19 1
    27   19   20 1
    28   19   30 1
    29   19   31 1
    30   20   21 1
    31   20   32 1
    32   20   33 1
    33   21   22 1
    34   21   34 1
    35   21   35 1
    36   22   36 1
    37   22   37 1
    38   23   24 2
    39   23   25 am
    40   25   38 1
    41   25   39 1
@<TRIPOS>MOLECULE
ZINC32908394
   45    47     0     0     0
SMALL
USER_CHARGES
N-[1-(2-amino-2-oxo-ethyl)-4-piperidyl]-2-[3-(2-thienyl)-5-thioxo-1H-1,2,4-triazol-4-yl]acetamide
@<TRIPOS>ATOM
      1 C1         -4.1540    3.1697    4.2441 C.2       1 <0>        -0.1414
      2 C2         -4.5342    3.3988    2.9411 C.2       1 <0>        -0.1326
      3 C3         -4.0913    2.5425    1.9656 C.2       1 <0>        -0.0477
      4 S1         -3.1201    1.3800    2.9105 S.3       1 <0>         0.0288
      5 C4         -3.3551    2.1072    4.5238 C.2       1 <0>        -0.1834
      6 C5         -4.3538    2.5709    0.5166 C.2       1 <0>         0.2401
      7 N1         -5.2836    3.2701   -0.0773 N.2       1 <0>        -0.2847
      8 N2         -5.2051    3.0152   -1.4532 N.2       1 <0>        -0.3665
      9 C6         -4.1928    2.1457   -1.6487 C.2       1 <0>         0.4022
     10 S2         -3.6824    1.5121   -3.1550 S.3       1 <0>        -0.7602
     11 N3         -3.6558    1.8646   -0.4448 N.pl3     1 <0>        -0.4881
     12 C7         -2.5297    0.9609   -0.1972 C.3       1 <0>         0.0967
     13 C8         -1.2393    1.7367   -0.2617 C.2       1 <0>         0.5173
     14 O1         -1.2585    2.9273   -0.4918 O.2       1 <0>        -0.5076
     15 N4         -0.0640    1.1075   -0.0636 N.am      1 <0>        -0.7448
     16 C9          1.1907    1.8606   -0.1323 C.3       1 <0>         0.1401
     17 C10         1.6541    1.9511   -1.5888 C.3       1 <0>        -0.1622
     18 C11         2.9954    2.6856   -1.6476 C.3       1 <0>         0.0024
     19 N5          3.9876    1.9606   -0.8436 N.4       1 <0>        -0.3881
     20 C12         3.5869    1.9020    0.5679 C.3       1 <0>        -0.0022
     21 C13         2.2633    1.1441    0.6928 C.3       1 <0>        -0.1490
     22 C14         5.3212    2.5594   -0.9879 C.3       1 <0>        -0.0310
     23 C15         6.3502    1.6493   -0.3682 C.2       1 <0>         0.5084
     24 O2          6.0242    0.5553    0.0412 O.2       1 <0>        -0.5398
     25 N6          7.6328    2.0512   -0.2689 N.am      1 <0>        -0.8545
     26 H1         -4.4871    3.8263    5.0342 H         1 <0>         0.1386
     27 H2         -5.1685    4.2366    2.6919 H         1 <0>         0.1444
     28 H3         -2.9661    1.7830    5.4778 H         1 <0>         0.1867
     29 H4         -2.6356    0.5077    0.7995 H         1 <0>         0.1045
     30 H5         -2.5201    0.1692   -0.9608 H         1 <0>         0.1357
     31 H6         -0.0469    0.0285    0.1497 H         1 <0>         0.4254
     32 H7          0.9866    2.8614    0.2760 H         1 <0>         0.1012
     33 H8          1.7707    0.9376   -2.0001 H         1 <0>         0.0939
     34 H9          0.9062    2.5021   -2.1780 H         1 <0>         0.1235
     35 H10         3.3385    2.7394   -2.6913 H         1 <0>         0.1349
     36 H11         2.8739    3.7035   -1.2486 H         1 <0>         0.1300
     37 H12         4.3631    1.3815    1.1481 H         1 <0>         0.1412
     38 H13         3.4620    2.9235    0.9563 H         1 <0>         0.1252
     39 H14         1.9544    1.1135    1.7481 H         1 <0>         0.1186
     40 H15         2.3896    0.1177    0.3178 H         1 <0>         0.0975
     41 H16         5.5481    2.6962   -2.0555 H         1 <0>         0.1606
     42 H17         5.3418    3.5353   -0.4807 H         1 <0>         0.1543
     43 H18         8.3839    1.3869    0.1834 H         1 <0>         0.4476
     44 H19         7.9285    3.0435   -0.6402 H         1 <0>         0.4349
     45 H20         4.0360    0.9286   -1.2214 H         1 <0>         0.4494
@<TRIPOS>BOND
     1    1    5 2
     2    1    2 1
     3    1   26 1
     4    2    3 2
     5    2   27 1
     6    3    4 1
     7    3    6 1
     8    4    5 1
     9    5   28 1
    10    6   11 1
    11    6    7 2
    12    7    8 1
    13    8    9 2
    14    9   10 1
    15    9   11 1
    16   11   12 1
    17   12   13 1
    18   12   29 1
    19   12   30 1
    20   13   14 2
    21   13   15 am
    22   15   16 1
    23   15   31 1
    24   16   21 1
    25   16   17 1
    26   16   32 1
    27   17   18 1
    28   17   33 1
    29   17   34 1
    30   18   19 1
    31   18   35 1
    32   18   36 1
    33   19   20 1
    34   19   22 1
    35   19   45 1
    36   20   21 1
    37   20   37 1
    38   20   38 1
    39   21   39 1
    40   21   40 1
    41   22   23 1
    42   22   41 1
    43   22   42 1
    44   23   24 2
    45   23   25 am
    46   25   43 1
    47   25   44 1
@<TRIPOS>MOLECULE
ZINC16021954
   47    50     0     0     0
SMALL
USER_CHARGES

@<TRIPOS>ATOM
      1 C1         -0.0173    1.4248    0.0099 C.3       1 <0>         0.0314
      2 O1          0.0021   -0.0041    0.0020 O.3       1 <0>        -0.3820
      3 C2         -1.2953   -0.6030    0.0112 C.3       1 <0>         0.0428
      4 C3         -1.1538   -2.1264    0.0017 C.3       1 <0>         0.1027
      5 N1         -0.5155   -2.5654    1.2451 N.am      1 <0>        -0.5641
      6 C4          0.8111   -2.6798    1.3761 C.2       1 <0>         0.5333
      7 O2          1.6236   -2.4444    0.5078 O.2       1 <0>        -0.4535
      8 C5          1.1391   -3.1475    2.7756 C.3       1 <0>        -0.1573
      9 H1          1.7874   -2.4526    3.3093 H         1 <0>         0.1500
     10 C6          1.7232   -4.5746    2.7129 C.3       1 <0>         0.1037
     11 H2          2.3623   -4.7610    3.5760 H         1 <0>         0.1270
     12 N2          0.5390   -5.4735    2.7422 N.3       1 <0>        -0.6064
     13 C7         -0.3838   -4.8233    3.6911 C.3       1 <0>         0.1235
     14 C8         -0.2578   -3.2998    3.4400 C.3       1 <0>        -0.1358
     15 H3         -0.3623   -2.7051    4.3474 H         1 <0>         0.1499
     16 C9         -1.2113   -2.8791    2.3439 C.2       1 <0>         0.5277
     17 O3         -2.4186   -2.8353    2.4446 O.2       1 <0>        -0.4476
     18 C10        -0.0473   -5.1709    5.1134 C.ar      1 <0>        -0.0910
     19 C11         1.0774   -5.0017    5.8898 C.ar      1 <0>        -0.0807
     20 C12         1.0846   -5.4395    7.2042 C.ar      1 <0>         0.0812
     21 C13        -0.0422   -6.0466    7.7334 C.ar      1 <0>        -0.1078
     22 C14        -1.1701   -6.2166    6.9579 C.ar      1 <0>        -0.1083
     23 C15        -1.1846   -5.7796    5.6355 C.ar      1 <0>         0.1458
     24 N3         -2.1894   -5.8384    4.6657 N.am      1 <0>        -0.6526
     25 C16        -1.7977   -5.2981    3.4956 C.2       1 <0>         0.5415
     26 O4         -2.4569   -5.2116    2.4812 O.2       1 <0>        -0.4655
     27 F1          2.1873   -5.2752    7.9672 F         1 <0>        -0.1325
     28 C17         2.5111   -4.7707    1.4161 C.3       1 <0>        -0.1479
     29 C18         3.1736   -6.1242    1.4306 C.2       1 <0>         0.5159
     30 O5          3.0297   -6.8596    2.3842 O.2       1 <0>        -0.5193
     31 N4          3.9260   -6.5174    0.3839 N.am      1 <0>        -0.8586
     32 H4          1.0053    1.8021    0.0021 H         1 <0>         0.0883
     33 H5         -0.5445    1.7859   -0.8732 H         1 <0>         0.0434
     34 H6         -0.5275    1.7763    0.9067 H         1 <0>         0.0399
     35 H7         -1.8320   -0.2936    0.9080 H         1 <0>         0.0551
     36 H8         -1.8490   -0.2840   -0.8718 H         1 <0>         0.0706
     37 H9         -2.1404   -2.5824   -0.0809 H         1 <0>         0.1124
     38 H10        -0.5414   -2.4291   -0.8477 H         1 <0>         0.1051
     39 H11         0.1211   -5.5511    1.8271 H         1 <0>         0.3470
     40 H12         1.9542   -4.5279    5.4738 H         1 <0>         0.1418
     41 H13        -0.0376   -6.3887    8.7578 H         1 <0>         0.1476
     42 H14        -2.0450   -6.6908    7.3775 H         1 <0>         0.1411
     43 H15        -3.0667   -6.2234    4.8175 H         1 <0>         0.4208
     44 H16         1.8325   -4.7074    0.5655 H         1 <0>         0.0966
     45 H17         3.2720   -3.9946    1.3324 H         1 <0>         0.1205
     46 H18         4.0411   -5.9293   -0.3788 H         1 <0>         0.4015
     47 H19         4.3524   -7.3886    0.3932 H         1 <0>         0.4028
@<TRIPOS>BOND
     1    1    2 1
     2    1   32 1
     3    1   33 1
     4    1   34 1
     5    2    3 1
     6    3    4 1
     7    3   35 1
     8    3   36 1
     9    4    5 1
    10    4   37 1
    11    4   38 1
    12    5   16 am
    13    5    6 am
    14    6    7 2
    15    6    8 1
    16    8    9 1
    17    8   14 1
    18    8   10 1
    19   10   11 1
    20   10   12 1
    21   10   28 1
    22   12   13 1
    23   12   39 1
    24   13   25 1
    25   13   14 1
    26   13   18 1
    27   14   15 1
    28   14   16 1
    29   16   17 2
    30   18   23 ar
    31   18   19 ar
    32   19   20 ar
    33   19   40 1
    34   20   21 ar
    35   20   27 1
    36   21   22 ar
    37   21   41 1
    38   22   23 ar
    39   22   42 1
    40   23   24 1
    41   24   25 am
    42   24   43 1
    43   25   26 2
    44   28   29 1
    45   28   44 1
    46   28   45 1
    47   29   30 2
    48   29   31 am
    49   31   46 1
    50   31   47 1
@<TRIPOS>MOLECULE
ZINC64056584
   50    52     0     0     0
SMALL
USER_CHARGES

@<TRIPOS>ATOM
      1 C1         -0.0173    1.4248    0.0099 C.3       1 <0>         0.0312
      2 O1          0.0021   -0.0041    0.0020 O.3       1 <0>        -0.3904
      3 C2          0.6734   -0.5824    1.1231 C.3       1 <0>         0.0659
      4 C3          0.6327   -2.1077    1.0107 C.3       1 <0>        -0.1402
      5 C4          1.3514   -2.7270    2.2110 C.3       1 <0>         0.1277
      6 N1          1.3125   -4.1875    2.1034 N.am      1 <0>        -0.5291
      7 C5          0.3272   -5.0066    2.6066 C.2       1 <0>         0.2403
      8 H1          2.3005   -7.0217    1.2710 H         1 <0>         0.4582
      9 N2          0.6261   -6.2410    2.3209 N.2       1 <0>        -0.2823
     10 N3          1.8358   -6.2419    1.6129 N.am      1 <0>        -0.5406
     11 C6          2.2323   -4.9583    1.4897 C.2       1 <0>         0.6552
     12 O2          3.2400   -4.5670    0.9279 O.2       1 <0>        -0.5438
     13 S1         -1.1006   -4.4731    3.4906 S.3       1 <0>         0.1115
     14 C7         -1.9831   -6.0122    3.8687 C.3       1 <0>        -0.1550
     15 C8         -3.2417   -5.6945    4.6343 C.2       1 <0>         0.5294
     16 O3         -3.5163   -4.5434    4.8987 O.2       1 <0>        -0.4691
     17 N4         -4.0622   -6.6898    5.0250 N.am      1 <0>        -0.6130
     18 C9         -5.2141   -6.3990    5.7257 C.2       1 <0>         0.2324
     19 C10        -6.1397   -7.2840    6.1944 C.2       1 <0>        -0.3091
     20 C11        -7.3500   -6.7504    6.9026 C.3       1 <0>        -0.0354
     21 H2         -7.6539   -7.4201    7.7071 H         1 <0>         0.0980
     22 C12        -8.4853   -6.5793    5.8735 C.3       1 <0>        -0.1156
     23 C13        -9.2579   -5.3167    6.2740 C.3       1 <0>        -0.1202
     24 C14        -8.3586   -4.5145    7.2228 C.3       1 <0>        -0.1022
     25 C15        -7.0656   -5.3223    7.4495 C.3       1 <0>        -0.0818
     26 H3         -6.7214   -5.3173    8.4838 H         1 <0>         0.1231
     27 S2         -5.8011   -4.7869    6.2153 S.3       1 <0>        -0.0297
     28 C16        -5.9639   -8.6656    6.0176 C.2       1 <0>         0.5882
     29 O4         -4.9757   -9.0854    5.4403 O.2       1 <0>        -0.5770
     30 N5         -6.8878   -9.5278    6.4860 N.am      1 <0>        -0.8514
     31 H4          1.0053    1.8021    0.0021 H         1 <0>         0.0428
     32 H5         -0.5445    1.7859   -0.8732 H         1 <0>         0.0879
     33 H6         -0.5275    1.7763    0.9067 H         1 <0>         0.0437
     34 H7          1.7103   -0.2468    1.1385 H         1 <0>         0.0546
     35 H8          0.1775   -0.2725    2.0430 H         1 <0>         0.0562
     36 H9         -0.4042   -2.4434    0.9953 H         1 <0>         0.0832
     37 H10         1.1285   -2.4176    0.0908 H         1 <0>         0.0814
     38 H11         2.3884   -2.3913    2.2264 H         1 <0>         0.1058
     39 H12         0.8556   -2.4171    3.1309 H         1 <0>         0.1014
     40 H13        -2.2414   -6.5205    2.9398 H         1 <0>         0.1389
     41 H14        -1.3448   -6.6584    4.4712 H         1 <0>         0.1387
     42 H15        -3.8425   -7.6106    4.8135 H         1 <0>         0.4381
     43 H16        -8.0675   -6.4595    4.8739 H         1 <0>         0.0724
     44 H17        -9.1466   -7.4454    5.9003 H         1 <0>         0.0725
     45 H18        -9.4841   -4.7237    5.3878 H         1 <0>         0.0726
     46 H19       -10.1811   -5.5929    6.7834 H         1 <0>         0.0707
     47 H20        -8.1241   -3.5467    6.7795 H         1 <0>         0.0784
     48 H21        -8.8637   -4.3716    8.1781 H         1 <0>         0.0812
     49 H22        -7.6741   -9.1938    6.9454 H         1 <0>         0.4009
     50 H23        -6.7664  -10.4824    6.3639 H         1 <0>         0.4030
@<TRIPOS>BOND
     1    1    2 1
     2    1   31 1
     3    1   32 1
     4    1   33 1
     5    2    3 1
     6    3    4 1
     7    3   34 1
     8    3   35 1
     9    4    5 1
    10    4   36 1
    11    4   37 1
    12    5   38 1
    13    5   39 1
    14    5    6 1
    15    6   11 am
    16    6    7 1
    17    7   13 1
    18    7    9 2
    19    8   10 1
    20    9   10 1
    21   10   11 am
    22   11   12 2
    23   13   14 1
    24   14   15 1
    25   14   40 1
    26   14   41 1
    27   15   16 2
    28   15   17 am
    29   17   18 1
    30   17   42 1
    31   18   27 1
    32   18   19 2
    33   19   20 1
    34   19   28 1
    35   20   21 1
    36   20   25 1
    37   20   22 1
    38   22   23 1
    39   22   43 1
    40   22   44 1
    41   23   24 1
    42   23   45 1
    43   23   46 1
    44   24   25 1
    45   24   47 1
    46   24   48 1
    47   25   26 1
    48   25   27 1
    49   28   29 2
    50   28   30 am
    51   30   49 1
    52   30   50 1
