@<TRIPOS>MOLECULE
1B9V-RA2
 50 51 0 0 0
SMALL
SF_CHARGES


@<TRIPOS>ATOM
1    C        33.8750   -9.4120   65.0710  C.2        1 SUBUNIT     -0.1011
2    C        32.6830   -9.1850   64.3260  C.2        1 SUBUNIT      0.1069
3    C        31.6360  -10.1660   64.3690  C.2        1 SUBUNIT      0.1086
4    C        31.8140  -11.3380   65.1410  C.2        1 SUBUNIT     -0.1153
5    C        32.9940  -11.5710   65.8730  C.2        1 SUBUNIT     -0.0427
6    C        34.0310  -10.5980   65.8420  C.2        1 SUBUNIT     -0.1055
7    C        33.1340  -12.8250   66.6530  C.2        1 SUBUNIT      0.7930
8    N        32.5210   -8.0310   63.5490  N.am       1 SUBUNIT     -0.4328
9    N        30.4840   -9.9330   63.6410  N.pl3      1 SUBUNIT     -0.5549
10   C        29.1840  -10.6300   63.7590  C.3        1 SUBUNIT      0.1860
11   C        29.2160  -11.9210   62.8880  C.3        1 SUBUNIT     -0.0761
12   C        27.9490  -12.7780   62.9190  C.3        1 SUBUNIT     -0.1030
13   C        28.0610   -9.6490   63.3340  C.3        1 SUBUNIT     -0.0761
14   C        27.7650   -8.5320   64.3440  C.3        1 SUBUNIT     -0.1030
15   C        33.0660   -7.7960   62.1590  C.3        1 SUBUNIT      0.1874
16   C        32.0960   -6.7030   61.6670  C.3        1 SUBUNIT     -0.0831
17   C        31.7780   -5.8770   62.9210  C.3        1 SUBUNIT     -0.0759
18   C        31.7970   -6.9540   63.9980  C.2        1 SUBUNIT      0.6331
19   O        31.2300   -6.8410   65.0770  O.2        1 SUBUNIT     -0.5480
20   C        33.0290   -9.0750   61.2490  C.3        1 SUBUNIT      0.1771
21   O        31.7020   -9.4880   60.9290  O.3        1 SUBUNIT     -0.5612
22   C        34.5150   -7.2100   62.1450  C.3        1 SUBUNIT      0.1771
23   O        35.1150   -7.1970   63.4350  O.3        1 SUBUNIT     -0.5612
24   O        32.0780  -13.6760   66.5930  O.co2      1 SUBUNIT     -0.9118
25   O        34.1150  -13.0700   67.2850  O.co2      1 SUBUNIT     -0.9118
26   H        34.6644   -8.6811   65.0511  H          1 SUBUNIT      0.0967
27   H        31.0282  -12.0724   65.1712  H          1 SUBUNIT      0.0957
28   H        34.9351  -10.7592   66.4027  H          1 SUBUNIT      0.0950
29   H        30.5747   -9.1961   62.9592  H          1 SUBUNIT      0.3095
30   H        29.0124  -10.9259   64.7992  H          1 SUBUNIT      0.0174
31   H        29.3904  -11.6257   61.8481  H          1 SUBUNIT      0.0353
32   H        30.0462  -12.5450   63.2349  H          1 SUBUNIT      0.0353
33   H        27.7320  -13.1209   63.9360  H          1 SUBUNIT      0.0381
34   H        28.0574  -13.6619   62.2818  H          1 SUBUNIT      0.0381
35   H        27.0827  -12.2107   62.5630  H          1 SUBUNIT      0.0381
36   H        28.3543   -9.1806   62.3887  H          1 SUBUNIT      0.0353
37   H        27.1408  -10.2240   63.1869  H          1 SUBUNIT      0.0353
38   H        27.4509   -8.9471   65.3073  H          1 SUBUNIT      0.0381
39   H        26.9647   -7.8779   63.9824  H          1 SUBUNIT      0.0381
40   H        28.6523   -7.9142   64.5170  H          1 SUBUNIT      0.0381
41   H        32.5712   -6.0781   60.9036  H          1 SUBUNIT      0.0387
42   H        31.1839   -7.1498   61.2578  H          1 SUBUNIT      0.0387
43   H        32.5419   -5.1143   63.1049  H          1 SUBUNIT      0.0376
44   H        30.7949   -5.4000   62.8501  H          1 SUBUNIT      0.0376
45   H        33.5453   -8.8747   60.3044  H          1 SUBUNIT      0.0239
46   H        33.5163   -9.9108   61.7618  H          1 SUBUNIT      0.0239
47   H        31.6932  -10.4404   60.8090  H          1 SUBUNIT      0.3810
48   H        35.1542   -7.8139   61.4925  H          1 SUBUNIT      0.0239
49   H        34.4950   -6.1769   61.7826  H          1 SUBUNIT      0.0239
50   H        35.3324   -6.2914   63.6677  H          1 SUBUNIT      0.3810
@<TRIPOS>BOND
     1    1    2 1
     2    1    6 2
     3    2    3 2
     4    2    8 1
     5    3    4 1
     6    3    9 1
     7    4    5 2
     8    5    6 1
     9    5    7 1
    10    7   24 2
    11    7   25 1
    12    8   15 1
    13    8   18 1
    14    9   10 1
    15   10   11 1
    16   10   13 1
    17   11   12 1
    18   13   14 1
    19   15   16 1
    20   15   20 1
    21   15   22 1
    22   16   17 1
    23   17   18 1
    24   18   19 2
    25   20   21 1
    26   22   23 1
    27    1   26 1
    28    4   27 1
    29    6   28 1
    30    9   29 1
    31   10   30 1
    32   11   31 1
    33   11   32 1
    34   12   33 1
    35   12   34 1
    36   12   35 1
    37   13   36 1
    38   13   37 1
    39   14   38 1
    40   14   39 1
    41   14   40 1
    42   16   41 1
    43   16   42 1
    44   17   43 1
    45   17   44 1
    46   20   45 1
    47   20   46 1
    48   21   47 1
    49   22   48 1
    50   22   49 1
    51   23   50 1
