@<TRIPOS>MOLECULE
CHEMBL564829
   67    71     0     0     0
SMALL
USER_CHARGES

@<TRIPOS>ATOM
      1 C1         -0.7147    1.0631    2.2902 C.3       1 <0>        -0.1479
      2 C2         -0.5734   -0.4119    1.9091 C.3       1 <0>         0.0124
      3 C3         -0.3135   -0.5264    0.4065 C.3       1 <0>        -0.0569
      4 C4          0.1728   -1.8906    0.0121 C.ar      1 <0>        -0.2080
      5 C5         -0.1885   -2.4481   -1.2002 C.ar      1 <0>         0.1955
      6 N1          0.2817   -3.6427   -1.5258 N.ar      1 <0>        -0.5565
      7 C6          1.0925   -4.3101   -0.7169 C.ar      1 <0>         0.5609
      8 N2          1.4580   -3.8193    0.4600 N.ar      1 <0>        -0.5554
      9 C7          1.0101   -2.6367    0.8537 C.ar      1 <0>         0.2975
     10 C8          1.3145   -2.0692    2.1786 C.2       1 <0>         0.0347
     11 C9          0.5714   -1.0164    2.6686 C.2       1 <0>        -0.1117
     12 C10         1.1194   -0.7175    3.9164 C.2       1 <0>         0.0030
     13 N3          2.1040   -1.5788    4.1258 N.2       1 <0>        -0.2422
     14 N4          2.2210   -2.3845    3.1239 N.pl3     1 <0>        -0.2451
     15 C11         3.1929   -3.4766    3.0293 C.3       1 <0>         0.0822
     16 C12         0.6837    0.3573    4.8318 C.2       1 <0>         0.6121
     17 O1         -0.3491    0.2376    5.4618 O.2       1 <0>        -0.5176
     18 N5          1.4313    1.4703    4.9685 N.am      1 <0>        -0.7211
     19 C13         0.9993    2.5360    5.8762 C.3       1 <0>         0.0856
     20 N6          1.5698   -5.5494   -1.1102 N.pl3     1 <0>        -0.6373
     21 C14         1.2871   -6.0337   -2.3940 C.ar      1 <0>         0.1365
     22 C15         1.1575   -5.1494   -3.4567 C.ar      1 <0>        -0.0681
     23 C16         0.8784   -5.6267   -4.7220 C.ar      1 <0>        -0.1621
     24 C17         0.7276   -6.9912   -4.9317 C.ar      1 <0>         0.1767
     25 C18         0.8576   -7.8756   -3.8689 C.ar      1 <0>        -0.1608
     26 C19         1.1419   -7.3986   -2.6047 C.ar      1 <0>        -0.1026
     27 N7          0.4442   -7.4750   -6.2140 N.pl3     1 <0>        -0.6456
     28 C20         0.1559   -8.9000   -6.4382 C.3       1 <0>         0.1007
     29 C21        -1.1396   -9.0118   -7.2487 C.3       1 <0>        -0.0233
     30 N8         -1.0170   -8.2177   -8.4777 N.4       1 <0>        -0.3836
     31 C22        -0.8825   -6.7945   -8.1421 C.3       1 <0>        -0.0232
     32 C23         0.4202   -6.5719   -7.3750 C.3       1 <0>         0.0995
     33 C24        -2.2144   -8.4126   -9.3060 C.3       1 <0>        -0.0471
     34 C25        -1.8648   -1.1540    2.2592 C.3       1 <0>        -0.1388
     35 H1          0.2388    1.5698    2.1415 H         1 <0>         0.0586
     36 H2         -1.4754    1.5290    1.6638 H         1 <0>         0.0680
     37 H3         -1.0083    1.1414    3.3370 H         1 <0>         0.0686
     38 H4         -1.2387   -0.3131   -0.1289 H         1 <0>         0.0901
     39 H5          0.4358    0.2117    0.1207 H         1 <0>         0.0847
     40 H6         -0.8452   -1.9166   -1.8729 H         1 <0>         0.1769
     41 H7          4.1103   -3.1078    2.5705 H         1 <0>         0.0881
     42 H8          3.4126   -3.8550    4.0276 H         1 <0>         0.1005
     43 H9          2.7790   -4.2795    2.4193 H         1 <0>         0.1097
     44 H10         2.2553    1.5658    4.4658 H         1 <0>         0.4050
     45 H11         1.7253    3.3487    5.8540 H         1 <0>         0.0807
     46 H12         0.0254    2.9100    5.5600 H         1 <0>         0.0650
     47 H13         0.9256    2.1422    6.8899 H         1 <0>         0.0646
     48 H14         2.0999   -6.0819   -0.4968 H         1 <0>         0.4245
     49 H15         1.2748   -4.0883   -3.2936 H         1 <0>         0.1417
     50 H16         0.7769   -4.9389   -5.5484 H         1 <0>         0.1250
     51 H17         0.7404   -8.9368   -4.0319 H         1 <0>         0.1264
     52 H18         1.2474   -8.0867   -1.7790 H         1 <0>         0.1303
     53 H19         0.9756   -9.3567   -6.9929 H         1 <0>         0.0866
     54 H20         0.0329   -9.4041   -5.4796 H         1 <0>         0.1256
     55 H21        -1.3179  -10.0557   -7.5068 H         1 <0>         0.1402
     56 H22        -1.9732   -8.6366   -6.6551 H         1 <0>         0.1322
     57 H23        -0.8714   -6.2045   -9.0585 H         1 <0>         0.1406
     58 H24        -1.7239   -6.4863   -7.5215 H         1 <0>         0.1322
     59 H25         0.4718   -5.5374   -7.0354 H         1 <0>         0.1266
     60 H26         1.2670   -6.7895   -8.0259 H         1 <0>         0.0863
     61 H27        -3.0961   -8.0913   -8.7514 H         1 <0>         0.1215
     62 H28        -2.1247   -7.8235  -10.2187 H         1 <0>         0.1250
     63 H29        -2.3110   -9.4676   -9.5625 H         1 <0>         0.1249
     64 H30        -2.6970   -0.7144    1.7094 H         1 <0>         0.0657
     65 H31        -1.7649   -2.2050    1.9880 H         1 <0>         0.0500
     66 H32        -2.0525   -1.0714    3.3298 H         1 <0>         0.0673
     67 H33        -0.2028   -8.5192   -8.9917 H         1 <0>         0.4246
@<TRIPOS>BOND
     1    1    2 1
     2    1   35 1
     3    1   36 1
     4    1   37 1
     5    2   11 1
     6    2    3 1
     7    2   34 1
     8    3    4 1
     9    3   38 1
    10    3   39 1
    11    4    9 ar
    12    4    5 ar
    13    5    6 ar
    14    5   40 1
    15    6    7 ar
    16    7    8 ar
    17    7   20 1
    18    8    9 ar
    19    9   10 1
    20   10   14 1
    21   10   11 2
    22   11   12 1
    23   12   13 2
    24   12   16 1
    25   13   14 1
    26   14   15 1
    27   15   41 1
    28   15   42 1
    29   15   43 1
    30   16   17 2
    31   16   18 am
    32   18   19 1
    33   18   44 1
    34   19   45 1
    35   19   46 1
    36   19   47 1
    37   20   21 1
    38   20   48 1
    39   21   26 ar
    40   21   22 ar
    41   22   23 ar
    42   22   49 1
    43   23   24 ar
    44   23   50 1
    45   24   25 ar
    46   24   27 1
    47   25   26 ar
    48   25   51 1
    49   26   52 1
    50   27   32 1
    51   27   28 1
    52   28   29 1
    53   28   53 1
    54   28   54 1
    55   29   30 1
    56   29   55 1
    57   29   56 1
    58   30   31 1
    59   30   33 1
    60   30   67 1
    61   31   32 1
    62   31   57 1
    63   31   58 1
    64   32   59 1
    65   32   60 1
    66   33   61 1
    67   33   62 1
    68   33   63 1
    69   34   64 1
    70   34   65 1
    71   34   66 1
@<TRIPOS>MOLECULE
CHEMBL564829__1
   66    70     0     0     0
SMALL
USER_CHARGES

@<TRIPOS>ATOM
      1 C1         -0.7150    1.0617    2.3053 C.3       1 <0>        -0.1465
      2 C2         -0.5750   -0.4126    1.9208 C.3       1 <0>         0.0128
      3 C3         -0.3175   -0.5240    0.4175 C.3       1 <0>        -0.0543
      4 C4          0.1676   -1.8875    0.0194 C.ar      1 <0>        -0.2182
      5 C5         -0.1960   -2.4423   -1.1935 C.ar      1 <0>         0.1984
      6 N1          0.2732   -3.6364   -1.5224 N.ar      1 <0>        -0.5512
      7 C6          1.0850   -4.3060   -0.7162 C.ar      1 <0>         0.5652
      8 N2          1.4526   -3.8178    0.4612 N.ar      1 <0>        -0.5605
      9 C7          1.0058   -2.6358    0.8582 C.ar      1 <0>         0.2923
     10 C8          1.3126   -2.0713    2.1837 C.2       1 <0>         0.0427
     11 C9          0.5707   -1.0192    2.6771 C.2       1 <0>        -0.1150
     12 C10         1.1209   -0.7232    3.9247 C.2       1 <0>         0.0006
     13 N3          2.1053   -1.5854    4.1307 N.2       1 <0>        -0.2472
     14 N4          2.2205   -2.3890    3.1269 N.pl3     1 <0>        -0.2460
     15 C11         3.1917   -3.4814    3.0284 C.3       1 <0>         0.0826
     16 C12         0.6871    0.3498    4.8431 C.2       1 <0>         0.6142
     17 O1         -0.3448    0.2293    5.4743 O.2       1 <0>        -0.5191
     18 N5          1.4355    1.4622    4.9811 N.am      1 <0>        -0.7223
     19 C13         1.0054    2.5261    5.8918 C.3       1 <0>         0.0865
     20 N6          1.5611   -5.5446   -1.1129 N.pl3     1 <0>        -0.6318
     21 C14         1.2761   -6.0260   -2.3972 C.ar      1 <0>         0.1006
     22 C15         1.1449   -5.1393   -3.4578 C.ar      1 <0>        -0.0612
     23 C16         0.8636   -5.6138   -4.7236 C.ar      1 <0>        -0.1799
     24 C17         0.7123   -6.9778   -4.9362 C.ar      1 <0>         0.2083
     25 C18         0.8440   -7.8646   -3.8755 C.ar      1 <0>        -0.1793
     26 C19         1.1305   -7.3904   -2.6108 C.ar      1 <0>        -0.0948
     27 N7          0.4267   -7.4587   -6.2190 N.pl3     1 <0>        -0.6318
     28 C20         0.1373   -8.8830   -6.4442 C.3       1 <0>         0.1267
     29 C21        -1.1695   -8.9948   -7.2367 C.3       1 <0>         0.0383
     30 N8         -1.0705   -8.1809   -8.4555 N.3       1 <0>        -0.5426
     31 C22        -0.9093   -6.7567   -8.1336 C.3       1 <0>         0.0380
     32 C23         0.4021   -6.5521   -7.3769 C.3       1 <0>         0.1260
     33 C24        -2.2330   -8.3952   -9.3276 C.3       1 <0>         0.0242
     34 C25        -1.8661   -1.1548    2.2713 C.3       1 <0>        -0.1384
     35 H1          0.2385    1.5683    2.1559 H         1 <0>         0.0575
     36 H2         -1.4765    1.5293    1.6811 H         1 <0>         0.0670
     37 H3         -1.0068    1.1379    3.3527 H         1 <0>         0.0668
     38 H4         -1.2434   -0.3091   -0.1160 H         1 <0>         0.0884
     39 H5          0.4317    0.2144    0.1321 H         1 <0>         0.0818
     40 H6         -0.8535   -1.9090   -1.8640 H         1 <0>         0.1751
     41 H7          4.1085   -3.1120    2.5690 H         1 <0>         0.0874
     42 H8          3.4127   -3.8620    4.0256 H         1 <0>         0.0987
     43 H9          2.7764   -4.2828    2.4174 H         1 <0>         0.1113
     44 H10         2.2589    1.5583    4.4774 H         1 <0>         0.4051
     45 H11         1.7319    3.3384    5.8703 H         1 <0>         0.0795
     46 H12         0.0314    2.9013    5.5779 H         1 <0>         0.0642
     47 H13         0.9330    2.1301    6.9047 H         1 <0>         0.0634
     48 H14         2.0918   -6.0787   -0.5014 H         1 <0>         0.4206
     49 H15         1.2626   -4.0786   -3.2925 H         1 <0>         0.1345
     50 H16         0.7609   -4.9241   -5.5483 H         1 <0>         0.1245
     51 H17         0.7263   -8.9253   -4.0407 H         1 <0>         0.1256
     52 H18         1.2372   -8.0803   -1.7868 H         1 <0>         0.1230
     53 H19         0.9497   -9.3365   -7.0120 H         1 <0>         0.0696
     54 H20         0.0288   -9.3906   -5.4857 H         1 <0>         0.0859
     55 H21        -1.3425  -10.0363   -7.5079 H         1 <0>         0.0856
     56 H22        -1.9974   -8.6354   -6.6256 H         1 <0>         0.0384
     57 H23        -0.8936   -6.1750   -9.0553 H         1 <0>         0.0859
     58 H24        -1.7408   -6.4284   -7.5100 H         1 <0>         0.0383
     59 H25         0.4687   -5.5193   -7.0348 H         1 <0>         0.0869
     60 H26         1.2406   -6.7772   -8.0361 H         1 <0>         0.0694
     61 H27        -3.1427   -8.1178   -8.7951 H         1 <0>         0.0258
     62 H28        -2.1342   -7.7807  -10.2225 H         1 <0>         0.0703
     63 H29        -2.2848   -9.4461   -9.6124 H         1 <0>         0.0706
     64 H30        -2.6990   -0.7136    1.7238 H         1 <0>         0.0649
     65 H31        -1.7671   -2.2052    1.9977 H         1 <0>         0.0514
     66 H32        -2.0522   -1.0743    3.3423 H         1 <0>         0.0652
@<TRIPOS>BOND
     1    1    2 1
     2    1   35 1
     3    1   36 1
     4    1   37 1
     5    2   11 1
     6    2    3 1
     7    2   34 1
     8    3    4 1
     9    3   38 1
    10    3   39 1
    11    4    9 ar
    12    4    5 ar
    13    5    6 ar
    14    5   40 1
    15    6    7 ar
    16    7    8 ar
    17    7   20 1
    18    8    9 ar
    19    9   10 1
    20   10   14 1
    21   10   11 2
    22   11   12 1
    23   12   13 2
    24   12   16 1
    25   13   14 1
    26   14   15 1
    27   15   41 1
    28   15   42 1
    29   15   43 1
    30   16   17 2
    31   16   18 am
    32   18   19 1
    33   18   44 1
    34   19   45 1
    35   19   46 1
    36   19   47 1
    37   20   21 1
    38   20   48 1
    39   21   26 ar
    40   21   22 ar
    41   22   23 ar
    42   22   49 1
    43   23   24 ar
    44   23   50 1
    45   24   25 ar
    46   24   27 1
    47   25   26 ar
    48   25   51 1
    49   26   52 1
    50   27   32 1
    51   27   28 1
    52   28   29 1
    53   28   53 1
    54   28   54 1
    55   29   30 1
    56   29   55 1
    57   29   56 1
    58   30   31 1
    59   30   33 1
    60   31   32 1
    61   31   57 1
    62   31   58 1
    63   32   59 1
    64   32   60 1
    65   33   61 1
    66   33   62 1
    67   33   63 1
    68   34   64 1
    69   34   65 1
    70   34   66 1
@<TRIPOS>MOLECULE
CHEMBL386661
   71    75     0     0     0
SMALL
USER_CHARGES

@<TRIPOS>ATOM
      1 C1         -0.0578    1.4882    0.0752 C.3       1 <0>        -0.1289
      2 C2         -0.0328   -0.0185    0.0544 C.ar      1 <0>        -0.0348
      3 C3         -0.0263   -0.6909   -1.1524 C.ar      1 <0>        -0.1241
      4 C4         -0.0035   -2.0706   -1.1803 C.ar      1 <0>        -0.0803
      5 C5          0.0127   -2.7952    0.0137 C.ar      1 <0>        -0.1467
      6 C6          0.0062   -2.1213    1.2337 C.ar      1 <0>        -0.0369
      7 C7         -0.0106   -0.7302    1.2533 C.ar      1 <0>        -0.0458
      8 C8         -0.0111   -0.0054    2.5478 C.ar      1 <0>        -0.0835
      9 C9          0.9039    1.0375    2.7621 C.ar      1 <0>        -0.0523
     10 C10         0.9250    1.7186    3.9385 C.ar      1 <0>        -0.1185
     11 C11         0.0223    1.3809    4.9591 C.ar      1 <0>         0.2202
     12 C12        -0.9069    0.3280    4.7524 C.ar      1 <0>        -0.2173
     13 C13        -0.9172   -0.3589    3.5318 C.ar      1 <0>        -0.0330
     14 C14        -1.8011    0.0106    5.7926 C.ar      1 <0>         0.2448
     15 N1         -1.7360    0.7037    6.9100 N.ar      1 <0>        -0.5570
     16 C15        -0.8510    1.6857    7.0699 C.ar      1 <0>         0.5716
     17 N2          0.0105    2.0272    6.1313 N.ar      1 <0>        -0.5743
     18 N3         -0.8345    2.3755    8.2686 N.pl3     1 <0>        -0.6981
     19 C16        -1.7785    2.0204    9.3311 C.3       1 <0>         0.1024
     20 C17         0.0362   -4.2730   -0.0164 C.2       1 <0>         0.5637
     21 O1          0.0502   -4.9021    1.0237 O.2       1 <0>        -0.5070
     22 N4          0.0420   -4.9229   -1.1972 N.am      1 <0>        -0.6617
     23 C18         0.1862   -6.3156   -1.2292 C.ar      1 <0>         0.1373
     24 C19         0.8161   -6.9739   -0.1829 C.ar      1 <0>        -0.0472
     25 C20         0.9573   -8.3482   -0.2169 C.ar      1 <0>        -0.1832
     26 C21         0.4721   -9.0702   -1.2918 C.ar      1 <0>        -0.0471
     27 C22        -0.1567   -8.4212   -2.3380 C.ar      1 <0>        -0.1902
     28 C23        -0.3075   -7.0443   -2.3091 C.ar      1 <0>         0.1166
     29 O2         -0.9311   -6.4052   -3.3345 O.3       1 <0>        -0.2970
     30 C24        -1.5144   -7.2238   -4.3502 C.3       1 <0>         0.0717
     31 C25        -0.5240   -7.3888   -5.5065 C.3       1 <0>        -0.1734
     32 C26        -1.1837   -8.1993   -6.6243 C.3       1 <0>        -0.0032
     33 N5         -2.3818   -7.4979   -7.1006 N.4       1 <0>        -0.3877
     34 C27        -3.3657   -7.3995   -6.0158 C.3       1 <0>        -0.0020
     35 C28        -2.7900   -6.5581   -4.8747 C.3       1 <0>        -0.1479
     36 C29        -2.9674   -8.2401   -8.2250 C.3       1 <0>        -0.0479
     37 C30         1.6422   -9.0617    0.9201 C.3       1 <0>         0.5111
     38 F1          0.6947   -9.4168    1.8862 F         1 <0>        -0.1715
     39 F2          2.2698  -10.2147    0.4366 F         1 <0>        -0.1752
     40 F3          2.5980   -8.2160    1.4932 F         1 <0>        -0.1719
     41 H1          0.9637    1.8685    0.0714 H         1 <0>         0.0813
     42 H2         -0.5854    1.8550   -0.8052 H         1 <0>         0.0728
     43 H3         -0.5697    1.8307    0.9745 H         1 <0>         0.0777
     44 H4         -0.0394   -0.1345   -2.0780 H         1 <0>         0.1340
     45 H5          0.0015   -2.5908   -2.1267 H         1 <0>         0.1231
     46 H6          0.0186   -2.6766    2.1599 H         1 <0>         0.1418
     47 H7          1.6014    1.3023    1.9813 H         1 <0>         0.1337
     48 H8          1.6355    2.5181    4.0877 H         1 <0>         0.1407
     49 H9         -1.6225   -1.1590    3.3620 H         1 <0>         0.1354
     50 H10        -2.5242   -0.7831    5.6763 H         1 <0>         0.1785
     51 H11        -0.1978    3.0944    8.4058 H         1 <0>         0.4177
     52 H12        -1.6161    2.6679   10.1927 H         1 <0>         0.0790
     53 H13        -2.7985    2.1473    8.9683 H         1 <0>         0.0612
     54 H14        -1.6233    0.9817    9.6228 H         1 <0>         0.0613
     55 H15        -0.0538   -4.4260   -2.0247 H         1 <0>         0.4164
     56 H16         1.1964   -6.4125    0.6577 H         1 <0>         0.1708
     57 H17         0.5850  -10.1440   -1.3142 H         1 <0>         0.1453
     58 H18        -0.5345   -8.9882   -3.1760 H         1 <0>         0.1421
     59 H19        -1.7579   -8.2018   -3.9350 H         1 <0>         0.0981
     60 H20        -0.2417   -6.4070   -5.8868 H         1 <0>         0.1028
     61 H21         0.3644   -7.9121   -5.1530 H         1 <0>         0.1197
     62 H22        -0.4812   -8.3188   -7.4490 H         1 <0>         0.1392
     63 H23        -1.4654   -9.1809   -6.2430 H         1 <0>         0.1320
     64 H24        -4.2741   -6.9285   -6.3914 H         1 <0>         0.1412
     65 H25        -3.6009   -8.3981   -5.6475 H         1 <0>         0.1328
     66 H26        -3.5213   -6.4878   -4.0695 H         1 <0>         0.1228
     67 H27        -2.5547   -5.5592   -5.2418 H         1 <0>         0.1021
     68 H28        -3.2396   -9.2429   -7.8959 H         1 <0>         0.1232
     69 H29        -3.8573   -7.7200   -8.5795 H         1 <0>         0.1263
     70 H30        -2.2398   -8.3080   -9.0338 H         1 <0>         0.1261
     71 H31        -2.1278   -6.5710   -7.4080 H         1 <0>         0.4271
@<TRIPOS>BOND
     1    1    2 1
     2    1   41 1
     3    1   42 1
     4    1   43 1
     5    2    7 ar
     6    2    3 ar
     7    3    4 ar
     8    3   44 1
     9    4    5 ar
    10    4   45 1
    11    5    6 ar
    12    5   20 1
    13    6    7 ar
    14    6   46 1
    15    7    8 1
    16    8   13 ar
    17    8    9 ar
    18    9   10 ar
    19    9   47 1
    20   10   11 ar
    21   10   48 1
    22   11   17 ar
    23   11   12 ar
    24   12   13 ar
    25   12   14 ar
    26   13   49 1
    27   14   15 ar
    28   14   50 1
    29   15   16 ar
    30   16   17 ar
    31   16   18 1
    32   18   19 1
    33   18   51 1
    34   19   52 1
    35   19   53 1
    36   19   54 1
    37   20   21 2
    38   20   22 am
    39   22   23 1
    40   22   55 1
    41   23   28 ar
    42   23   24 ar
    43   24   25 ar
    44   24   56 1
    45   25   26 ar
    46   25   37 1
    47   26   27 ar
    48   26   57 1
    49   27   28 ar
    50   27   58 1
    51   28   29 1
    52   29   30 1
    53   30   35 1
    54   30   31 1
    55   30   59 1
    56   31   32 1
    57   31   60 1
    58   31   61 1
    59   32   33 1
    60   32   62 1
    61   32   63 1
    62   33   34 1
    63   33   36 1
    64   33   71 1
    65   34   35 1
    66   34   64 1
    67   34   65 1
    68   35   66 1
    69   35   67 1
    70   36   68 1
    71   36   69 1
    72   36   70 1
    73   37   38 1
    74   37   39 1
    75   37   40 1
@<TRIPOS>MOLECULE
CHEMBL68774
   50    54     0     0     0
SMALL
USER_CHARGES

@<TRIPOS>ATOM
      1 C1         -0.0117    1.3852    0.0702 C.ar      1 <0>        -0.1206
      2 C2          0.4474    0.7322    1.1993 C.ar      1 <0>        -0.1028
      3 C3          1.6515    0.0561    1.1661 C.ar      1 <0>        -0.1390
      4 C4          2.4004    0.0323   -0.0018 C.ar      1 <0>         0.0865
      5 C5          1.9373    0.6881   -1.1336 C.ar      1 <0>        -0.1223
      6 C6          0.7326    1.3630   -1.0949 C.ar      1 <0>        -0.1019
      7 O1          3.5855   -0.6316   -0.0370 O.3       1 <0>        -0.2433
      8 C7          3.5607   -1.9866    0.0606 C.ar      1 <0>         0.1265
      9 C8          2.3508   -2.6614    0.0619 C.ar      1 <0>        -0.1951
     10 C9          2.3268   -4.0400    0.1612 C.ar      1 <0>        -0.0789
     11 C10         3.5081   -4.7538    0.2597 C.ar      1 <0>        -0.1475
     12 C11         4.7207   -4.0944    0.2595 C.ar      1 <0>        -0.0693
     13 C12         4.7567   -2.7055    0.1541 C.ar      1 <0>        -0.0441
     14 C13         6.0565   -1.9927    0.1478 C.2       1 <0>        -0.0913
     15 C14         7.0194   -2.0703   -0.8034 C.2       1 <0>         0.0603
     16 N1          8.0731   -1.2677   -0.4575 N.pl3     1 <0>        -0.4469
     17 C15         7.8225   -0.6432    0.7344 C.ar      1 <0>         0.3444
     18 C16         6.5512   -1.0589    1.1674 C.ar      1 <0>        -0.2433
     19 C17         6.0514   -0.5522    2.3743 C.ar      1 <0>         0.4983
     20 N2          6.8031    0.3061    3.0585 N.ar      1 <0>        -0.6040
     21 C18         7.9913    0.6735    2.6144 C.ar      1 <0>         0.3593
     22 N3          8.5028    0.2163    1.4918 N.ar      1 <0>        -0.5713
     23 N4          4.8070   -0.9345    2.8425 N.pl3     1 <0>        -0.8272
     24 C19         9.2945   -1.1017   -1.2492 C.3       1 <0>         0.1324
     25 C20         8.9416   -0.6106   -2.6684 C.3       1 <0>        -0.1343
     26 C21         9.9520   -1.3430   -3.5859 C.3       1 <0>        -0.1234
     27 C22        10.0551   -2.7432   -2.9317 C.3       1 <0>        -0.1243
     28 C23        10.0025   -2.4576   -1.4166 C.3       1 <0>        -0.1361
     29 H1         -0.9553    1.9097    0.0971 H         1 <0>         0.1290
     30 H2         -0.1359    0.7510    2.1081 H         1 <0>         0.1304
     31 H3          2.0099   -0.4531    2.0485 H         1 <0>         0.1257
     32 H4          2.5182    0.6710   -2.0439 H         1 <0>         0.1313
     33 H5          0.3718    1.8738   -1.9754 H         1 <0>         0.1318
     34 H6          1.4254   -2.1099   -0.0143 H         1 <0>         0.1318
     35 H7          1.3815   -4.5624    0.1623 H         1 <0>         0.1280
     36 H8          3.4812   -5.8307    0.3372 H         1 <0>         0.1290
     37 H9          5.6408   -4.6547    0.3373 H         1 <0>         0.1330
     38 H10         6.9639   -2.6735   -1.6975 H         1 <0>         0.1745
     39 H11         8.5696    1.3727    3.2001 H         1 <0>         0.1975
     40 H12         4.2688   -1.5608    2.3337 H         1 <0>         0.4073
     41 H13         4.4728   -0.5762    3.6797 H         1 <0>         0.4056
     42 H14         9.9611   -0.3901   -0.7620 H         1 <0>         0.1101
     43 H15         7.9201   -0.8905   -2.9259 H         1 <0>         0.0765
     44 H16         9.0725    0.4690   -2.7420 H         1 <0>         0.0762
     45 H17         9.5659   -1.4191   -4.6024 H         1 <0>         0.0738
     46 H18        10.9187   -0.8395   -3.5754 H         1 <0>         0.0731
     47 H19         9.2135   -3.3674   -3.2317 H         1 <0>         0.0683
     48 H20        10.9987   -3.2198   -3.1975 H         1 <0>         0.0724
     49 H21        11.0130   -2.4037   -1.0115 H         1 <0>         0.0788
     50 H22         9.4373   -3.2391   -0.9088 H         1 <0>         0.0749
@<TRIPOS>BOND
     1    1    6 ar
     2    1    2 ar
     3    1   29 1
     4    2    3 ar
     5    2   30 1
     6    3    4 ar
     7    3   31 1
     8    4    5 ar
     9    4    7 1
    10    5    6 ar
    11    5   32 1
    12    6   33 1
    13    7    8 1
    14    8   13 ar
    15    8    9 ar
    16    9   10 ar
    17    9   34 1
    18   10   11 ar
    19   10   35 1
    20   11   12 ar
    21   11   36 1
    22   12   13 ar
    23   12   37 1
    24   13   14 1
    25   14   18 1
    26   14   15 2
    27   15   16 1
    28   15   38 1
    29   16   17 1
    30   16   24 1
    31   17   22 ar
    32   17   18 ar
    33   18   19 ar
    34   19   20 ar
    35   19   23 1
    36   20   21 ar
    37   21   22 ar
    38   21   39 1
    39   23   40 1
    40   23   41 1
    41   24   28 1
    42   24   25 1
    43   24   42 1
    44   25   26 1
    45   25   43 1
    46   25   44 1
    47   26   27 1
    48   26   45 1
    49   26   46 1
    50   27   28 1
    51   27   47 1
    52   27   48 1
    53   28   49 1
    54   28   50 1
@<TRIPOS>MOLECULE
CHEMBL432089
   59    63     0     0     0
SMALL
USER_CHARGES

@<TRIPOS>ATOM
      1 C1          0.5613    0.1657    3.8191 C.3       1 <0>        -0.1169
      2 C2          0.4625   -1.0617    2.9503 C.2       1 <0>        -0.0707
      3 C3         -0.7907   -1.6904    2.7547 C.ar      1 <0>        -0.0093
      4 C4         -1.9572   -1.1961    3.3547 C.ar      1 <0>        -0.1210
      5 C5         -3.1514   -1.8171    3.1518 C.ar      1 <0>        -0.0314
      6 C6         -3.2383   -2.9595    2.3420 C.ar      1 <0>         0.0847
      7 C7         -2.0863   -3.4746    1.7300 C.ar      1 <0>         0.0918
      8 C8         -0.8551   -2.8411    1.9337 C.ar      1 <0>        -0.1148
      9 C9          0.3785   -3.3353    1.3192 C.2       1 <0>         0.5472
     10 N1          1.5347   -2.6812    1.5534 N.am      1 <0>        -0.6241
     11 C10         1.5751   -1.5601    2.3514 C.2       1 <0>         0.0949
     12 C11         2.8637   -0.8845    2.5667 C.2       1 <0>        -0.0229
     13 C12         3.9545   -1.3182    1.9413 C.2       1 <0>        -0.2479
     14 C13         5.2749   -0.6260    2.1619 C.3       1 <0>         0.0438
     15 N2          6.2748   -1.6077    2.6028 N.4       1 <0>        -0.3939
     16 C14         6.5979   -2.5426    1.4948 C.3       1 <0>        -0.0070
     17 C15         7.9879   -3.0986    1.8941 C.3       1 <0>        -0.1462
     18 C16         8.6872   -1.8676    2.5150 C.3       1 <0>        -0.1454
     19 C17         7.5440   -0.9270    2.9391 C.3       1 <0>        -0.0090
     20 O1          0.3611   -4.3235    0.6069 O.2       1 <0>        -0.5311
     21 N3         -2.4903   -4.5809    1.0122 N.pl3     1 <0>        -0.4913
     22 C18        -3.8374   -4.7144    1.1948 C.2       1 <0>         0.5444
     23 N4         -4.2746   -3.7595    1.9773 N.2       1 <0>        -0.5088
     24 N5         -4.6201   -5.7063    0.6383 N.pl3     1 <0>        -0.6480
     25 C19        -5.9695   -5.8140    0.9924 C.ar      1 <0>         0.1716
     26 C20        -6.8359   -4.7513    0.7660 C.ar      1 <0>        -0.0114
     27 C21        -8.1683   -4.8613    1.1171 C.ar      1 <0>        -0.0952
     28 C22        -8.6392   -6.0268    1.6934 C.ar      1 <0>        -0.0918
     29 C23        -7.7800   -7.0861    1.9205 C.ar      1 <0>        -0.0954
     30 C24        -6.4477   -6.9859    1.5660 C.ar      1 <0>        -0.0351
     31 Cl1        -5.3717   -8.3195    1.8440 Cl        1 <0>        -0.0500
     32 Cl2        -6.2455   -3.2873    0.0437 Cl        1 <0>        -0.0348
     33 C25        -1.6334   -5.4511    0.2031 C.3       1 <0>         0.0843
     34 H1          1.3765    0.7968    3.4650 H         1 <0>         0.0720
     35 H2         -0.3753    0.7211    3.7712 H         1 <0>         0.0852
     36 H3          0.7543   -0.1331    4.8494 H         1 <0>         0.0832
     37 H4         -1.9081   -0.3181    3.9816 H         1 <0>         0.1447
     38 H5         -4.0426   -1.4259    3.6200 H         1 <0>         0.1414
     39 H6          2.9241   -0.0364    3.2325 H         1 <0>         0.1542
     40 H7          3.8941   -2.1663    1.2754 H         1 <0>         0.1286
     41 H8          5.6039   -0.1656    1.2303 H         1 <0>         0.1369
     42 H9          5.1589    0.1428    2.9259 H         1 <0>         0.1333
     43 H10         5.8628   -3.3458    1.4425 H         1 <0>         0.1327
     44 H11         6.6549   -2.0095    0.5458 H         1 <0>         0.1342
     45 H12         7.8873   -3.8968    2.6294 H         1 <0>         0.0977
     46 H13         8.5303   -3.4480    1.0156 H         1 <0>         0.1164
     47 H14         9.2748   -2.1645    3.3838 H         1 <0>         0.1052
     48 H15         9.3231   -1.3808    1.7757 H         1 <0>         0.1039
     49 H16         7.6163    0.0143    2.3943 H         1 <0>         0.1313
     50 H17         7.5936   -0.7427    4.0123 H         1 <0>         0.1326
     51 H18        -4.2345   -6.3286    0.0019 H         1 <0>         0.4229
     52 H19        -8.8422   -4.0359    0.9415 H         1 <0>         0.1461
     53 H20        -9.6807   -6.1097    1.9670 H         1 <0>         0.1478
     54 H21        -8.1512   -7.9946    2.3714 H         1 <0>         0.1465
     55 H22        -1.0172   -6.0660    0.8592 H         1 <0>         0.0787
     56 H23        -2.2543   -6.0945   -0.4204 H         1 <0>         0.0678
     57 H24        -0.9911   -4.8404   -0.4314 H         1 <0>         0.1131
     58 H25         2.3542   -3.0054    1.1482 H         1 <0>         0.4066
     59 H26         5.9319   -2.1192    3.4021 H         1 <0>         0.4276
@<TRIPOS>BOND
     1    1    2 1
     2    1   34 1
     3    1   35 1
     4    1   36 1
     5    2   11 2
     6    2    3 1
     7    3    8 ar
     8    3    4 ar
     9    4    5 ar
    10    4   37 1
    11    5    6 ar
    12    5   38 1
    13    6   23 1
    14    6    7 ar
    15    7    8 ar
    16    7   21 1
    17    8    9 1
    18    9   10 am
    19    9   20 2
    20   10   11 1
    21   10   58 1
    22   11   12 1
    23   12   13 2
    24   12   39 1
    25   13   14 1
    26   13   40 1
    27   14   15 1
    28   14   41 1
    29   14   42 1
    30   15   19 1
    31   15   16 1
    32   15   59 1
    33   16   17 1
    34   16   43 1
    35   16   44 1
    36   17   18 1
    37   17   45 1
    38   17   46 1
    39   18   19 1
    40   18   47 1
    41   18   48 1
    42   19   49 1
    43   19   50 1
    44   21   22 1
    45   21   33 1
    46   22   23 2
    47   22   24 1
    48   24   25 1
    49   24   51 1
    50   25   30 ar
    51   25   26 ar
    52   26   27 ar
    53   26   32 1
    54   27   28 ar
    55   27   52 1
    56   28   29 ar
    57   28   53 1
    58   29   30 ar
    59   29   54 1
    60   30   31 1
    61   33   55 1
    62   33   56 1
    63   33   57 1
@<TRIPOS>MOLECULE
CHEMBL432089__1
   58    62     0     0     0
SMALL
USER_CHARGES

@<TRIPOS>ATOM
      1 C1          0.5614    0.1657    3.8191 C.3       1 <0>        -0.1035
      2 C2          0.4625   -1.0617    2.9503 C.2       1 <0>        -0.1352
      3 C3         -0.7907   -1.6904    2.7547 C.ar      1 <0>         0.0239
      4 C4         -1.9572   -1.1961    3.3547 C.ar      1 <0>        -0.1315
      5 C5         -3.1514   -1.8171    3.1518 C.ar      1 <0>        -0.0300
      6 C6         -3.2383   -2.9595    2.3420 C.ar      1 <0>         0.0637
      7 C7         -2.0863   -3.4746    1.7300 C.ar      1 <0>         0.1014
      8 C8         -0.8551   -2.8411    1.9337 C.ar      1 <0>        -0.1369
      9 C9          0.3785   -3.3353    1.3192 C.2       1 <0>         0.5461
     10 N1          1.5347   -2.6812    1.5534 N.am      1 <0>        -0.6209
     11 C10         1.5751   -1.5601    2.3514 C.2       1 <0>         0.1594
     12 C11         2.8637   -0.8845    2.5667 C.2       1 <0>        -0.1242
     13 C12         3.9545   -1.3182    1.9413 C.2       1 <0>        -0.1164
     14 C13         5.2749   -0.6260    2.1619 C.3       1 <0>         0.0728
     15 N2          6.2748   -1.6077    2.6028 N.3       1 <0>        -0.5147
     16 C14         6.6824   -2.4926    1.4816 C.3       1 <0>         0.0300
     17 C15         8.0447   -3.0592    1.9545 C.3       1 <0>        -0.1249
     18 C16         8.6892   -1.8531    2.6755 C.3       1 <0>        -0.1328
     19 C17         7.5120   -0.9366    3.0571 C.3       1 <0>         0.0348
     20 O1          0.3611   -4.3235    0.6068 O.2       1 <0>        -0.5420
     21 N3         -2.4903   -4.5809    1.0122 N.pl3     1 <0>        -0.4895
     22 C18        -3.8374   -4.7144    1.1948 C.2       1 <0>         0.5298
     23 N4         -4.2746   -3.7595    1.9773 N.2       1 <0>        -0.5082
     24 N5         -4.6201   -5.7063    0.6383 N.pl3     1 <0>        -0.6518
     25 C19        -5.9695   -5.8140    0.9924 C.ar      1 <0>         0.1794
     26 C20        -6.8359   -4.7513    0.7661 C.ar      1 <0>        -0.0126
     27 C21        -8.1683   -4.8613    1.1172 C.ar      1 <0>        -0.0963
     28 C22        -8.6392   -6.0268    1.6934 C.ar      1 <0>        -0.0964
     29 C23        -7.7800   -7.0861    1.9205 C.ar      1 <0>        -0.0967
     30 C24        -6.4477   -6.9859    1.5660 C.ar      1 <0>        -0.0372
     31 Cl1        -5.3716   -8.3195    1.8440 Cl        1 <0>        -0.0508
     32 Cl2        -6.2455   -3.2873    0.0438 Cl        1 <0>        -0.0331
     33 C25        -1.6334   -5.4511    0.2031 C.3       1 <0>         0.0854
     34 H1          1.3765    0.7968    3.4650 H         1 <0>         0.0711
     35 H2         -0.3753    0.7210    3.7713 H         1 <0>         0.0741
     36 H3          0.7544   -0.1331    4.8495 H         1 <0>         0.0741
     37 H4         -1.9081   -0.3181    3.9816 H         1 <0>         0.1418
     38 H5         -4.0426   -1.4259    3.6200 H         1 <0>         0.1357
     39 H6          2.9242   -0.0364    3.2325 H         1 <0>         0.1461
     40 H7          3.8941   -2.1663    1.2754 H         1 <0>         0.1072
     41 H8          5.6039   -0.1656    1.2302 H         1 <0>         0.0536
     42 H9          5.1589    0.1428    2.9259 H         1 <0>         0.0862
     43 H10         5.9588   -3.2960    1.3430 H         1 <0>         0.0813
     44 H11         6.8024   -1.9188    0.5627 H         1 <0>         0.0471
     45 H12         7.8983   -3.8888    2.6461 H         1 <0>         0.0758
     46 H13         8.6505   -3.3681    1.1026 H         1 <0>         0.0728
     47 H14         9.2160   -2.1846    3.5703 H         1 <0>         0.0742
     48 H15         9.3722   -1.3321    2.0046 H         1 <0>         0.0677
     49 H16         7.6156    0.0276    2.5595 H         1 <0>         0.0464
     50 H17         7.4841   -0.7985    4.1380 H         1 <0>         0.0821
     51 H18        -4.2345   -6.3286    0.0019 H         1 <0>         0.4214
     52 H19        -8.8422   -4.0359    0.9416 H         1 <0>         0.1442
     53 H20        -9.6807   -6.1098    1.9670 H         1 <0>         0.1453
     54 H21        -8.1512   -7.9946    2.3714 H         1 <0>         0.1444
     55 H22        -1.0172   -6.0660    0.8591 H         1 <0>         0.0780
     56 H23        -2.2543   -6.0944   -0.4204 H         1 <0>         0.0632
     57 H24        -0.9911   -4.8404   -0.4314 H         1 <0>         0.1142
     58 H25         2.3542   -3.0054    1.1482 H         1 <0>         0.4111
@<TRIPOS>BOND
     1    1    2 1
     2    1   34 1
     3    1   35 1
     4    1   36 1
     5    2   11 2
     6    2    3 1
     7    3    8 ar
     8    3    4 ar
     9    4    5 ar
    10    4   37 1
    11    5    6 ar
    12    5   38 1
    13    6   23 1
    14    6    7 ar
    15    7    8 ar
    16    7   21 1
    17    8    9 1
    18    9   10 am
    19    9   20 2
    20   10   11 1
    21   10   58 1
    22   11   12 1
    23   12   13 2
    24   12   39 1
    25   13   14 1
    26   13   40 1
    27   14   15 1
    28   14   41 1
    29   14   42 1
    30   15   19 1
    31   15   16 1
    32   16   17 1
    33   16   43 1
    34   16   44 1
    35   17   18 1
    36   17   45 1
    37   17   46 1
    38   18   19 1
    39   18   47 1
    40   18   48 1
    41   19   49 1
    42   19   50 1
    43   21   22 1
    44   21   33 1
    45   22   23 2
    46   22   24 1
    47   24   25 1
    48   24   51 1
    49   25   30 ar
    50   25   26 ar
    51   26   27 ar
    52   26   32 1
    53   27   28 ar
    54   27   52 1
    55   28   29 ar
    56   28   53 1
    57   29   30 ar
    58   29   54 1
    59   30   31 1
    60   33   55 1
    61   33   56 1
    62   33   57 1
@<TRIPOS>MOLECULE
CHEMBL1085240
   71    76     0     0     0
SMALL
USER_CHARGES

@<TRIPOS>ATOM
      1 C1         -0.1068    1.4100   -0.0316 C.3       1 <0>        -0.0468
      2 N1         -0.0801   -0.0588   -0.0314 N.4       1 <0>        -0.3836
      3 C2         -1.4561   -0.5715   -0.0278 C.3       1 <0>        -0.0234
      4 C3         -1.4311   -2.0992   -0.1433 C.3       1 <0>         0.1000
      5 N2         -0.5810   -2.6342    0.9315 N.pl3     1 <0>        -0.6458
      6 C4          0.7620   -2.0592    1.1043 C.3       1 <0>         0.1000
      7 C5          0.6335   -0.5334    1.1609 C.3       1 <0>        -0.0231
      8 C6         -1.0363   -3.6589    1.7646 C.ar      1 <0>         0.1965
      9 C7         -2.3446   -4.1161    1.6532 C.ar      1 <0>        -0.1925
     10 C8         -2.7991   -5.1299    2.4751 C.ar      1 <0>        -0.0686
     11 C9         -1.9570   -5.6950    3.4117 C.ar      1 <0>        -0.1331
     12 C10        -0.6424   -5.2431    3.5310 C.ar      1 <0>         0.0704
     13 C11        -0.1819   -4.2241    2.6988 C.ar      1 <0>        -0.1811
     14 C12         0.2626   -5.8477    4.5356 C.2       1 <0>        -0.2356
     15 C13         1.5591   -6.3242    4.3057 C.2       1 <0>         0.1226
     16 N3          2.0459   -6.7855    5.4310 N.2       1 <0>        -0.3230
     17 N4          1.0924   -6.6316    6.4433 N.pl3     1 <0>        -0.3429
     18 C14        -0.0165   -6.0440    5.8941 C.2       1 <0>         0.3268
     19 N5         -1.0927   -5.7706    6.6398 N.2       1 <0>        -0.5094
     20 C15        -1.1256   -6.0513    7.9231 C.2       1 <0>         0.2410
     21 C16        -0.0167   -6.6515    8.5433 C.2       1 <0>        -0.2525
     22 C17         1.1054   -6.9473    7.7754 C.2       1 <0>         0.5047
     23 N6          2.2113   -7.5330    8.3464 N.pl3     1 <0>        -0.8198
     24 C18        -0.0447   -6.9715    9.9908 C.ar      1 <0>        -0.0442
     25 C19         0.0123   -8.2990   10.4138 C.ar      1 <0>        -0.0922
     26 C20        -0.0139   -8.5939   11.7605 C.ar      1 <0>        -0.1130
     27 C21        -0.0971   -7.5695   12.6959 C.ar      1 <0>         0.1550
     28 C22        -0.1545   -6.2456   12.2768 C.ar      1 <0>        -0.1373
     29 C23        -0.1223   -5.9452   10.9315 C.ar      1 <0>        -0.0781
     30 N7         -0.1236   -7.8713   14.0613 N.am      1 <0>        -0.6700
     31 C24         0.5838   -8.9165   14.5342 C.2       1 <0>         0.5615
     32 O1          1.3215   -9.5364   13.7930 O.2       1 <0>        -0.5054
     33 C25         0.4626   -9.3090   15.9541 C.ar      1 <0>        -0.1095
     34 C26        -0.3879   -8.6029   16.8065 C.ar      1 <0>        -0.0866
     35 C27        -0.4967   -8.9747   18.1305 C.ar      1 <0>        -0.0749
     36 C28         0.2353  -10.0447   18.6141 C.ar      1 <0>        -0.1527
     37 C29         1.0801  -10.7488   17.7746 C.ar      1 <0>        -0.0743
     38 C30         1.1939  -10.3910   16.4471 C.ar      1 <0>        -0.0560
     39 C31         0.1121  -10.4446   20.0619 C.3       1 <0>         0.5063
     40 F1         -0.9147  -11.3846   20.2003 F         1 <0>        -0.1716
     41 F2          1.3186  -11.0046   20.4953 F         1 <0>        -0.1725
     42 F3         -0.1820   -9.3157   20.8341 F         1 <0>        -0.1733
     43 H1          0.9140    1.7919   -0.0423 H         1 <0>         0.1244
     44 H2         -0.6364    1.7636   -0.9162 H         1 <0>         0.1247
     45 H3         -0.6179    1.7642    0.8636 H         1 <0>         0.1212
     46 H4         -1.9482   -0.2852    0.9017 H         1 <0>         0.1321
     47 H5         -2.0024   -0.1521   -0.8726 H         1 <0>         0.1399
     48 H6         -2.4429   -2.4910   -0.0393 H         1 <0>         0.1273
     49 H7         -1.0216   -2.3867   -1.1117 H         1 <0>         0.0863
     50 H8          1.2001   -2.4246    2.0331 H         1 <0>         0.1261
     51 H9          1.3930   -2.3427    0.2619 H         1 <0>         0.0863
     52 H10         1.6269   -0.0859    1.1920 H         1 <0>         0.1395
     53 H11         0.0782   -0.2483    2.0544 H         1 <0>         0.1320
     54 H12        -3.0079   -3.6773    0.9225 H         1 <0>         0.1196
     55 H13        -3.8164   -5.4810    2.3846 H         1 <0>         0.1269
     56 H14        -2.3159   -6.4869    4.0524 H         1 <0>         0.1233
     57 H15         0.8360   -3.8735    2.7839 H         1 <0>         0.1206
     58 H16         2.0734   -6.3135    3.3560 H         1 <0>         0.1974
     59 H17        -2.0070   -5.8199    8.5027 H         1 <0>         0.1804
     60 H18         2.9921   -7.7263    7.8043 H         1 <0>         0.4186
     61 H19         2.2103   -7.7528    9.2912 H         1 <0>         0.4278
     62 H20         0.0766   -9.0954    9.6873 H         1 <0>         0.1274
     63 H21         0.0298   -9.6219   12.0886 H         1 <0>         0.1382
     64 H22        -0.2198   -5.4513   13.0057 H         1 <0>         0.1323
     65 H23        -0.1620   -4.9160   10.6065 H         1 <0>         0.1313
     66 H24        -0.6510   -7.3284   14.6678 H         1 <0>         0.4136
     67 H25        -0.9592   -7.7671   16.4304 H         1 <0>         0.1393
     68 H26        -1.1544   -8.4293   18.7910 H         1 <0>         0.1472
     69 H27         1.6487  -11.5830   18.1584 H         1 <0>         0.1483
     70 H28         1.8503  -10.9443   15.7918 H         1 <0>         0.1517
     71 H29         0.3957   -0.3854   -0.8590 H         1 <0>         0.4243
@<TRIPOS>BOND
     1    1    2 1
     2    1   43 1
     3    1   44 1
     4    1   45 1
     5    2    7 1
     6    2    3 1
     7    2   71 1
     8    3    4 1
     9    3   46 1
    10    3   47 1
    11    4    5 1
    12    4   48 1
    13    4   49 1
    14    5    6 1
    15    5    8 1
    16    6    7 1
    17    6   50 1
    18    6   51 1
    19    7   52 1
    20    7   53 1
    21    8   13 ar
    22    8    9 ar
    23    9   10 ar
    24    9   54 1
    25   10   11 ar
    26   10   55 1
    27   11   12 ar
    28   11   56 1
    29   12   13 ar
    30   12   14 1
    31   13   57 1
    32   14   18 2
    33   14   15 1
    34   15   16 2
    35   15   58 1
    36   16   17 1
    37   17   22 1
    38   17   18 1
    39   18   19 1
    40   19   20 2
    41   20   21 1
    42   20   59 1
    43   21   22 2
    44   21   24 1
    45   22   23 1
    46   23   60 1
    47   23   61 1
    48   24   29 ar
    49   24   25 ar
    50   25   26 ar
    51   25   62 1
    52   26   27 ar
    53   26   63 1
    54   27   28 ar
    55   27   30 1
    56   28   29 ar
    57   28   64 1
    58   29   65 1
    59   30   31 am
    60   30   66 1
    61   31   32 2
    62   31   33 1
    63   33   38 ar
    64   33   34 ar
    65   34   35 ar
    66   34   67 1
    67   35   36 ar
    68   35   68 1
    69   36   37 ar
    70   36   39 1
    71   37   38 ar
    72   37   69 1
    73   38   70 1
    74   39   40 1
    75   39   41 1
    76   39   42 1
@<TRIPOS>MOLECULE
CHEMBL1085240__1
   70    75     0     0     0
SMALL
USER_CHARGES

@<TRIPOS>ATOM
      1 C1         -0.1062    1.4087   -0.0378 C.3       1 <0>         0.0244
      2 N1         -0.0794   -0.0601   -0.0370 N.3       1 <0>        -0.5424
      3 C2         -1.4381   -0.6114   -0.1261 C.3       1 <0>         0.0381
      4 C3         -1.3583   -2.1313   -0.3049 C.3       1 <0>         0.1265
      5 N2         -0.5317   -2.6863    0.7776 N.pl3     1 <0>        -0.6330
      6 C4          0.7919   -2.0914    1.0174 C.3       1 <0>         0.1270
      7 C5          0.6274   -0.5731    1.1441 C.3       1 <0>         0.0386
      8 C6         -0.9913   -3.7505    1.5571 C.ar      1 <0>         0.2209
      9 C7         -2.2848   -4.2307    1.3850 C.ar      1 <0>        -0.2034
     10 C8         -2.7434   -5.2836    2.1536 C.ar      1 <0>        -0.0695
     11 C9         -1.9203   -5.8652    3.0970 C.ar      1 <0>        -0.1531
     12 C10        -0.6208   -5.3904    3.2771 C.ar      1 <0>         0.0592
     13 C11        -0.1559   -4.3319    2.4985 C.ar      1 <0>        -0.1917
     14 C12         0.2638   -6.0127    4.2890 C.2       1 <0>        -0.2118
     15 C13         1.5775   -6.4530    4.0859 C.2       1 <0>         0.1211
     16 N3          2.0370   -6.9453    5.2095 N.2       1 <0>        -0.3259
     17 N4          1.0474   -6.8491    6.1939 N.pl3     1 <0>        -0.3442
     18 C14        -0.0555   -6.2651    5.6292 C.2       1 <0>         0.3162
     19 N5         -1.1617   -6.0422    6.3476 N.2       1 <0>        -0.5000
     20 C15        -1.2306   -6.3710    7.6179 C.2       1 <0>         0.2344
     21 C16        -0.1297   -6.9703    8.2531 C.2       1 <0>        -0.2608
     22 C17         1.0234   -7.2137    7.5133 C.2       1 <0>         0.5037
     23 N6          2.1226   -7.7968    8.0997 N.pl3     1 <0>        -0.8238
     24 C18        -0.1983   -7.3442    9.6862 C.ar      1 <0>        -0.0346
     25 C19        -0.1258   -8.6850   10.0624 C.ar      1 <0>        -0.0938
     26 C20        -0.1899   -9.0301   11.3957 C.ar      1 <0>        -0.1130
     27 C21        -0.3267   -8.0431   12.3644 C.ar      1 <0>         0.1488
     28 C22        -0.3997   -6.7061   11.9921 C.ar      1 <0>        -0.1365
     29 C23        -0.3298   -6.3554   10.6605 C.ar      1 <0>        -0.0795
     30 N7         -0.3915   -8.3958   13.7163 N.am      1 <0>        -0.6685
     31 C24         0.3229   -9.4427   14.1745 C.2       1 <0>         0.5597
     32 O1          1.0983  -10.0191   13.4367 O.2       1 <0>        -0.5056
     33 C25         0.1635   -9.8902   15.5743 C.ar      1 <0>        -0.1069
     34 C26        -0.7303   -9.2343   16.4225 C.ar      1 <0>        -0.0867
     35 C27        -0.8745   -9.6573   17.7276 C.ar      1 <0>        -0.0751
     36 C28        -0.1353  -10.7288   18.1965 C.ar      1 <0>        -0.1549
     37 C29         0.7523  -11.3834   17.3610 C.ar      1 <0>        -0.0747
     38 C30         0.9019  -10.9742   16.0521 C.ar      1 <0>        -0.0567
     39 C31        -0.2974  -11.1847   19.6237 C.3       1 <0>         0.5067
     40 F1         -1.3071  -12.1506   19.6929 F         1 <0>        -0.1723
     41 F2          0.9062  -11.7350   20.0771 F         1 <0>        -0.1731
     42 F3         -0.6420  -10.0917   20.4261 F         1 <0>        -0.1737
     43 H1          0.9146    1.7907   -0.0481 H         1 <0>         0.0700
     44 H2         -0.6354    1.7620   -0.9228 H         1 <0>         0.0700
     45 H3         -0.6178    1.7632    0.8571 H         1 <0>         0.0254
     46 H4         -1.9849   -0.3810    0.7882 H         1 <0>         0.0382
     47 H5         -1.9540   -0.1714   -0.9796 H         1 <0>         0.0849
     48 H6         -2.3599   -2.5587   -0.2567 H         1 <0>         0.0874
     49 H7         -0.9041   -2.3633   -1.2682 H         1 <0>         0.0689
     50 H8          1.2119   -2.4924    1.9398 H         1 <0>         0.0859
     51 H9          1.4528   -2.3196    0.1812 H         1 <0>         0.0688
     52 H10         1.6096   -0.1053    1.2119 H         1 <0>         0.0845
     53 H11         0.0519   -0.3432    2.0408 H         1 <0>         0.0381
     54 H12        -2.9331   -3.7792    0.6487 H         1 <0>         0.1189
     55 H13        -3.7491   -5.6524    2.0161 H         1 <0>         0.1195
     56 H14        -2.2825   -6.6877    3.6960 H         1 <0>         0.1154
     57 H15         0.8506   -3.9633    2.6307 H         1 <0>         0.1195
     58 H16         2.1225   -6.3962    3.1552 H         1 <0>         0.1991
     59 H17        -2.1356   -6.1798    8.1754 H         1 <0>         0.1776
     60 H18         2.9250   -7.9533    7.5777 H         1 <0>         0.4174
     61 H19         2.0953   -8.0514    9.0353 H         1 <0>         0.4251
     62 H20        -0.0198   -9.4524    9.3099 H         1 <0>         0.1273
     63 H21        -0.1341  -10.0685   11.6876 H         1 <0>         0.1365
     64 H22        -0.5067   -5.9410   12.7467 H         1 <0>         0.1310
     65 H23        -0.3817   -5.3159   10.3719 H         1 <0>         0.1322
     66 H24        -0.9506   -7.8870   14.3240 H         1 <0>         0.4126
     67 H25        -1.3073   -8.3973   16.0579 H         1 <0>         0.1398
     68 H26        -1.5657   -9.1507   18.3849 H         1 <0>         0.1466
     69 H27         1.3263  -12.2191   17.7333 H         1 <0>         0.1475
     70 H28         1.5918  -11.4888   15.3997 H         1 <0>         0.1517
@<TRIPOS>BOND
     1    1    2 1
     2    1   43 1
     3    1   44 1
     4    1   45 1
     5    2    7 1
     6    2    3 1
     7    3    4 1
     8    3   46 1
     9    3   47 1
    10    4    5 1
    11    4   48 1
    12    4   49 1
    13    5    6 1
    14    5    8 1
    15    6    7 1
    16    6   50 1
    17    6   51 1
    18    7   52 1
    19    7   53 1
    20    8   13 ar
    21    8    9 ar
    22    9   10 ar
    23    9   54 1
    24   10   11 ar
    25   10   55 1
    26   11   12 ar
    27   11   56 1
    28   12   13 ar
    29   12   14 1
    30   13   57 1
    31   14   18 2
    32   14   15 1
    33   15   16 2
    34   15   58 1
    35   16   17 1
    36   17   22 1
    37   17   18 1
    38   18   19 1
    39   19   20 2
    40   20   21 1
    41   20   59 1
    42   21   22 2
    43   21   24 1
    44   22   23 1
    45   23   60 1
    46   23   61 1
    47   24   29 ar
    48   24   25 ar
    49   25   26 ar
    50   25   62 1
    51   26   27 ar
    52   26   63 1
    53   27   28 ar
    54   27   30 1
    55   28   29 ar
    56   28   64 1
    57   29   65 1
    58   30   31 am
    59   30   66 1
    60   31   32 2
    61   31   33 1
    62   33   38 ar
    63   33   34 ar
    64   34   35 ar
    65   34   67 1
    66   35   36 ar
    67   35   68 1
    68   36   37 ar
    69   36   39 1
    70   37   38 ar
    71   37   69 1
    72   38   70 1
    73   39   40 1
    74   39   41 1
    75   39   42 1
@<TRIPOS>MOLECULE
CHEMBL1079945
   57    61     0     0     0
SMALL
USER_CHARGES

@<TRIPOS>ATOM
      1 C1         -3.0338    0.7271    1.2968 C.3       1 <0>        -0.1099
      2 C2         -2.9328   -0.7764    1.3145 C.ar      1 <0>        -0.1398
      3 C3         -3.7769   -1.5342    0.5255 C.ar      1 <0>        -0.0721
      4 C4         -3.6879   -2.9126    0.5391 C.ar      1 <0>        -0.1395
      5 C5         -2.7484   -3.5418    1.3470 C.ar      1 <0>         0.1685
      6 C6         -1.8990   -2.7840    2.1402 C.ar      1 <0>        -0.1795
      7 C7         -1.9872   -1.3990    2.1199 C.ar      1 <0>         0.1898
      8 N1         -1.1294   -0.6314    2.9133 N.pl3     1 <0>        -0.6332
      9 C8         -0.0789   -1.2332    3.5753 C.2       1 <0>         0.5492
     10 N2          0.2750   -2.4866    3.4430 N.2       1 <0>        -0.5099
     11 C9          1.3471   -2.7465    4.2373 C.ar      1 <0>         0.0761
     12 C10         2.1076   -3.8938    4.4763 C.ar      1 <0>        -0.0782
     13 C11         3.1615   -3.8437    5.3612 C.ar      1 <0>        -0.1116
     14 C12         3.4737   -2.6626    6.0177 C.ar      1 <0>        -0.1101
     15 C13         2.7319   -1.5210    5.7928 C.ar      1 <0>        -0.0860
     16 C14         1.6682   -1.5532    4.9046 C.ar      1 <0>         0.0573
     17 N3          0.7534   -0.6071    4.4647 N.pl3     1 <0>        -0.4572
     18 C15         0.6913    0.7288    4.8568 C.ar      1 <0>         0.4247
     19 C16         0.5508    1.7358    3.9090 C.ar      1 <0>        -0.3106
     20 C17         0.4931    3.0549    4.3516 C.ar      1 <0>         0.4663
     21 N4          0.5741    3.3019    5.6574 N.ar      1 <0>        -0.5767
     22 C18         0.7070    2.3187    6.5240 C.ar      1 <0>         0.3747
     23 N5          0.7601    1.0582    6.1443 N.ar      1 <0>        -0.5627
     24 N6          0.3539    4.0951    3.4462 N.pl3     1 <0>        -0.8260
     25 N7         -2.6595   -4.9374    1.3609 N.am      1 <0>        -0.6633
     26 C19        -2.9099   -5.6398    0.2382 C.2       1 <0>         0.5621
     27 O1         -3.1184   -5.0582   -0.8088 O.2       1 <0>        -0.5075
     28 C20        -2.9311   -7.1172    0.2800 C.ar      1 <0>        -0.1363
     29 C21        -2.6979   -7.7880    1.4819 C.ar      1 <0>        -0.0536
     30 C22        -2.7196   -9.1668    1.5141 C.ar      1 <0>        -0.1230
     31 C23        -2.9718   -9.8850    0.3584 C.ar      1 <0>        -0.0440
     32 C24        -3.2033   -9.2265   -0.8360 C.ar      1 <0>        -0.1895
     33 C25        -3.1901   -7.8475   -0.8808 C.ar      1 <0>        -0.0075
     34 C26        -3.4766  -10.0169   -2.0896 C.3       1 <0>         0.5102
     35 F1         -3.4442  -11.3842   -1.7951 F         1 <0>        -0.1748
     36 F2         -4.7384   -9.6773   -2.5893 F         1 <0>        -0.1731
     37 F3         -2.5009   -9.7231   -3.0482 F         1 <0>        -0.1728
     38 H1         -2.3784    1.1262    0.5227 H         1 <0>         0.0717
     39 H2         -4.0629    1.0197    1.0880 H         1 <0>         0.0756
     40 H3         -2.7333    1.1229    2.2670 H         1 <0>         0.0516
     41 H4         -4.5081   -1.0477   -0.1030 H         1 <0>         0.1318
     42 H5         -4.3493   -3.5020   -0.0785 H         1 <0>         0.1351
     43 H6         -1.1680   -3.2706    2.7689 H         1 <0>         0.1850
     44 H7         -1.2727    0.3241    2.9984 H         1 <0>         0.4187
     45 H8          1.8695   -4.8170    3.9690 H         1 <0>         0.1324
     46 H9          3.7491   -4.7309    5.5457 H         1 <0>         0.1329
     47 H10         4.3025   -2.6363    6.7097 H         1 <0>         0.1328
     48 H11         2.9795   -0.6045    6.3076 H         1 <0>         0.1243
     49 H12         0.4883    1.5013    2.8566 H         1 <0>         0.1457
     50 H13         0.7699    2.5524    7.5766 H         1 <0>         0.2102
     51 H14         0.2959    3.9069    2.4964 H         1 <0>         0.4156
     52 H15         0.3145    5.0113    3.7624 H         1 <0>         0.4148
     53 H16        -2.4177   -5.3999    2.1785 H         1 <0>         0.4111
     54 H17        -2.5006   -7.2286    2.3845 H         1 <0>         0.1378
     55 H18        -2.5390   -9.6870    2.4431 H         1 <0>         0.1460
     56 H19        -2.9876  -10.9645    0.3890 H         1 <0>         0.1466
     57 H20        -3.3758   -7.3345   -1.8129 H         1 <0>         0.1496
@<TRIPOS>BOND
     1    1    2 1
     2    1   38 1
     3    1   39 1
     4    1   40 1
     5    2    7 ar
     6    2    3 ar
     7    3    4 ar
     8    3   41 1
     9    4    5 ar
    10    4   42 1
    11    5    6 ar
    12    5   25 1
    13    6    7 ar
    14    6   43 1
    15    7    8 1
    16    8    9 1
    17    8   44 1
    18    9   17 1
    19    9   10 2
    20   10   11 1
    21   11   16 ar
    22   11   12 ar
    23   12   13 ar
    24   12   45 1
    25   13   14 ar
    26   13   46 1
    27   14   15 ar
    28   14   47 1
    29   15   16 ar
    30   15   48 1
    31   16   17 1
    32   17   18 1
    33   18   23 ar
    34   18   19 ar
    35   19   20 ar
    36   19   49 1
    37   20   21 ar
    38   20   24 1
    39   21   22 ar
    40   22   23 ar
    41   22   50 1
    42   24   51 1
    43   24   52 1
    44   25   26 am
    45   25   53 1
    46   26   27 2
    47   26   28 1
    48   28   33 ar
    49   28   29 ar
    50   29   30 ar
    51   29   54 1
    52   30   31 ar
    53   30   55 1
    54   31   32 ar
    55   31   56 1
    56   32   33 ar
    57   32   34 1
    58   33   57 1
    59   34   35 1
    60   34   36 1
    61   34   37 1
@<TRIPOS>MOLECULE
CHEMBL1079945__1
   58    62     0     0     0
SMALL
USER_CHARGES

@<TRIPOS>ATOM
      1 C1          3.2853   -0.1103    0.3320 C.3       1 <0>        -0.1223
      2 C2          1.8948   -0.5879    0.0009 C.ar      1 <0>        -0.0793
      3 C3          1.6110   -1.0606   -1.2661 C.ar      1 <0>        -0.0735
      4 C4          0.3376   -1.4989   -1.5739 C.ar      1 <0>        -0.0934
      5 C5         -0.6624   -1.4657   -0.6094 C.ar      1 <0>         0.1745
      6 C6         -0.3807   -0.9921    0.6638 C.ar      1 <0>        -0.1518
      7 C7          0.9012   -0.5578    0.9715 C.ar      1 <0>         0.0996
      8 N1          1.1907   -0.0852    2.2549 N.pl3     1 <0>        -0.6264
      9 C8          0.9570   -0.8859    3.3540 C.cat     1 <0>         0.6511
     10 N2          0.9679   -2.1951    3.3474 N.pl3     1 <0>        -0.5099
     11 C9          0.7000   -2.6620    4.5956 C.ar      1 <0>         0.0580
     12 C10         0.5912   -3.9456    5.1362 C.ar      1 <0>        -0.0781
     13 C11         0.3011   -4.1024    6.4732 C.ar      1 <0>        -0.0763
     14 C12         0.1156   -2.9952    7.2876 C.ar      1 <0>        -0.0739
     15 C13         0.2194   -1.7208    6.7686 C.ar      1 <0>        -0.0654
     16 C14         0.5117   -1.5446    5.4252 C.ar      1 <0>         0.0901
     17 N3          0.6846   -0.4303    4.6166 N.pl3     1 <0>        -0.4034
     18 C15         0.5948    0.9025    5.0139 C.ar      1 <0>         0.4136
     19 C16         0.4372    1.9104    4.0698 C.ar      1 <0>        -0.3224
     20 C17         0.3521    3.2262    4.5176 C.ar      1 <0>         0.4810
     21 N4          0.4242    3.4695    5.8247 N.ar      1 <0>        -0.5643
     22 C18         0.5738    2.4854    6.6877 C.ar      1 <0>         0.3975
     23 N5          0.6531    1.2279    6.3030 N.ar      1 <0>        -0.5644
     24 N6          0.1951    4.2673    3.6161 N.pl3     1 <0>        -0.8151
     25 N7         -1.9514   -1.9088   -0.9222 N.am      1 <0>        -0.6736
     26 C19        -2.1244   -2.8982   -1.8208 C.2       1 <0>         0.5689
     27 O1         -1.1651   -3.5239   -2.2282 O.2       1 <0>        -0.4988
     28 C20        -3.4807   -3.2225   -2.3111 C.ar      1 <0>        -0.1480
     29 C21        -4.5839   -2.5020   -1.8497 C.ar      1 <0>        -0.0543
     30 C22        -5.8467   -2.8094   -2.3116 C.ar      1 <0>        -0.1218
     31 C23        -6.0214   -3.8294   -3.2303 C.ar      1 <0>        -0.0355
     32 C24        -4.9326   -4.5475   -3.6913 C.ar      1 <0>        -0.1853
     33 C25        -3.6633   -4.2465   -3.2417 C.ar      1 <0>        -0.0036
     34 C26        -5.1324   -5.6569   -4.6915 C.3       1 <0>         0.5094
     35 F1         -6.4929   -5.7692   -4.9977 F         1 <0>        -0.1720
     36 F2         -4.4143   -5.3690   -5.8570 F         1 <0>        -0.1711
     37 F3         -4.6758   -6.8625   -4.1481 F         1 <0>        -0.1717
     38 H1          3.8775   -0.9462    0.7045 H         1 <0>         0.0816
     39 H2          3.7533    0.2955   -0.5649 H         1 <0>         0.0864
     40 H3          3.2307    0.6652    1.0960 H         1 <0>         0.0619
     41 H4          2.3862   -1.0871   -2.0175 H         1 <0>         0.1487
     42 H5          0.1189   -1.8674   -2.5652 H         1 <0>         0.1503
     43 H6         -1.1561   -0.9653    1.4151 H         1 <0>         0.1334
     44 H7          1.5559    0.8057    2.3728 H         1 <0>         0.4432
     45 H8          0.7337   -4.8121    4.5075 H         1 <0>         0.1533
     46 H9          0.2171   -5.0949    6.8906 H         1 <0>         0.1572
     47 H10        -0.1118   -3.1313    8.3346 H         1 <0>         0.1574
     48 H11         0.0732   -0.8626    7.4078 H         1 <0>         0.1622
     49 H12         0.3826    1.6791    3.0163 H         1 <0>         0.1512
     50 H13         0.6289    2.7159    7.7414 H         1 <0>         0.2223
     51 H14         0.1438    4.0819    2.6654 H         1 <0>         0.4183
     52 H15         0.1366    5.1812    3.9359 H         1 <0>         0.4224
     53 H16        -2.7210   -1.5040   -0.4923 H         1 <0>         0.4152
     54 H17        -4.4489   -1.7060   -1.1324 H         1 <0>         0.1346
     55 H18        -6.7010   -2.2531   -1.9552 H         1 <0>         0.1485
     56 H19        -7.0123   -4.0661   -3.5888 H         1 <0>         0.1510
     57 H20        -2.8135   -4.8046   -3.6060 H         1 <0>         0.1514
     58 H21         1.1406   -2.7481    2.5695 H         1 <0>         0.4614
@<TRIPOS>BOND
     1    1    2 1
     2    1   38 1
     3    1   39 1
     4    1   40 1
     5    2    7 ar
     6    2    3 ar
     7    3    4 ar
     8    3   41 1
     9    4    5 ar
    10    4   42 1
    11    5    6 ar
    12    5   25 1
    13    6    7 ar
    14    6   43 1
    15    7    8 1
    16    8    9 1
    17    8   44 1
    18    9   17 1
    19    9   10 2
    20   10   11 1
    21   10   58 1
    22   11   16 ar
    23   11   12 ar
    24   12   13 ar
    25   12   45 1
    26   13   14 ar
    27   13   46 1
    28   14   15 ar
    29   14   47 1
    30   15   16 ar
    31   15   48 1
    32   16   17 1
    33   17   18 1
    34   18   23 ar
    35   18   19 ar
    36   19   20 ar
    37   19   49 1
    38   20   21 ar
    39   20   24 1
    40   21   22 ar
    41   22   23 ar
    42   22   50 1
    43   24   51 1
    44   24   52 1
    45   25   26 am
    46   25   53 1
    47   26   27 2
    48   26   28 1
    49   28   33 ar
    50   28   29 ar
    51   29   30 ar
    52   29   54 1
    53   30   31 ar
    54   30   55 1
    55   31   32 ar
    56   31   56 1
    57   32   33 ar
    58   32   34 1
    59   33   57 1
    60   34   35 1
    61   34   36 1
    62   34   37 1
@<TRIPOS>MOLECULE
CHEMBL1085564
   69    74     0     0     0
SMALL
USER_CHARGES

@<TRIPOS>ATOM
      1 C1         -0.1487    1.3822   -0.0505 C.3       1 <0>        -0.0469
      2 N1         -0.1213   -0.0866   -0.0470 N.4       1 <0>        -0.3835
      3 C2         -1.4970   -0.5999   -0.0397 C.3       1 <0>        -0.0235
      4 C3         -1.4715   -2.1279   -0.1517 C.3       1 <0>         0.1000
      5 N2         -0.6191   -2.6601    0.9227 N.pl3     1 <0>        -0.6458
      6 C4          0.7240   -2.0841    1.0916 C.3       1 <0>         0.1000
      7 C5          0.5948   -0.5582    1.1450 C.3       1 <0>        -0.0231
      8 C6         -1.0719   -3.6837    1.7584 C.ar      1 <0>         0.1964
      9 C7         -2.3805   -4.1414    1.6510 C.ar      1 <0>        -0.1926
     10 C8         -2.8327   -5.1539    2.4758 C.ar      1 <0>        -0.0686
     11 C9         -1.9880   -5.7174    3.4110 C.ar      1 <0>        -0.1331
     12 C10        -0.6732   -5.2653    3.5261 C.ar      1 <0>         0.0705
     13 C11        -0.2151   -4.2474    2.6912 C.ar      1 <0>        -0.1810
     14 C12         0.2345   -5.8682    4.5292 C.2       1 <0>        -0.2356
     15 C13         1.5305   -6.3450    4.2965 C.2       1 <0>         0.1227
     16 N3          2.0203   -6.8044    5.4213 N.2       1 <0>        -0.3229
     17 N4          1.0696   -6.6489    6.4359 N.pl3     1 <0>        -0.3429
     18 C14        -0.0408   -6.0622    5.8887 C.2       1 <0>         0.3269
     19 N5         -1.1152   -5.7880    6.6368 N.2       1 <0>        -0.5094
     20 C15        -1.1447   -6.0670    7.9206 C.2       1 <0>         0.2413
     21 C16        -0.0341   -6.6661    8.5387 C.2       1 <0>        -0.2528
     22 C17         1.0861   -6.9624    7.7684 C.2       1 <0>         0.5051
     23 N6          2.1936   -7.5471    8.3375 N.pl3     1 <0>        -0.8198
     24 C18        -0.0583   -6.9840    9.9868 C.ar      1 <0>        -0.0430
     25 C19        -0.0000   -8.3108   10.4116 C.ar      1 <0>        -0.0911
     26 C20        -0.0227   -8.6037   11.7589 C.ar      1 <0>        -0.1129
     27 C21        -0.1041   -7.5781   12.6928 C.ar      1 <0>         0.1685
     28 C22        -0.1627   -6.2552   12.2722 C.ar      1 <0>        -0.1334
     29 C23        -0.1336   -5.9565   10.9263 C.ar      1 <0>        -0.0770
     30 N7         -0.1274   -7.8783   14.0598 N.am      1 <0>        -0.6494
     31 C24         0.5803   -8.9234   14.5324 C.2       1 <0>         0.6473
     32 O1          1.3164   -9.5439   13.7909 O.2       1 <0>        -0.5342
     33 O2          0.4717   -9.2801   15.8267 O.3       1 <0>        -0.3005
     34 C25         1.1222  -10.4011   16.2365 C.ar      1 <0>         0.0942
     35 C26         0.4123  -11.5694   16.4721 C.ar      1 <0>        -0.1142
     36 C27         1.0757  -12.7075   16.8880 C.ar      1 <0>        -0.1054
     37 C28         2.4462  -12.6828   17.0694 C.ar      1 <0>        -0.1097
     38 C29         3.1560  -11.5197   16.8352 C.ar      1 <0>        -0.1053
     39 C30         2.4979  -10.3804   16.4141 C.ar      1 <0>        -0.1134
     40 H1          0.8720    1.7645   -0.0640 H         1 <0>         0.1244
     41 H2         -0.6801    1.7336   -0.9349 H         1 <0>         0.1247
     42 H3         -0.6582    1.7382    0.8449 H         1 <0>         0.1213
     43 H4         -1.9875   -0.3118    0.8901 H         1 <0>         0.1322
     44 H5         -2.0451   -0.1827   -0.8844 H         1 <0>         0.1399
     45 H6         -2.4830   -2.5199   -0.0449 H         1 <0>         0.1273
     46 H7         -1.0637   -2.4174   -1.1202 H         1 <0>         0.0863
     47 H8          1.1640   -2.4471    2.0204 H         1 <0>         0.1261
     48 H9          1.3535   -2.3691    0.2487 H         1 <0>         0.0863
     49 H10         1.5881   -0.1102    1.1732 H         1 <0>         0.1395
     50 H11         0.0411   -0.2713    2.0389 H         1 <0>         0.1321
     51 H12        -3.0456   -3.7041    0.9211 H         1 <0>         0.1195
     52 H13        -3.8502   -5.5051    2.3886 H         1 <0>         0.1268
     53 H14        -2.3452   -6.5082    4.0540 H         1 <0>         0.1233
     54 H15         0.8030   -3.8964    2.7732 H         1 <0>         0.1206
     55 H16         2.0422   -6.3359    3.3455 H         1 <0>         0.1974
     56 H17        -2.0246   -5.8349    8.5021 H         1 <0>         0.1808
     57 H18         2.9730   -7.7413    7.7936 H         1 <0>         0.4186
     58 H19         2.1952   -7.7653    9.2826 H         1 <0>         0.4279
     59 H20         0.0625   -9.1083    9.6861 H         1 <0>         0.1284
     60 H21         0.0224   -9.6312   12.0885 H         1 <0>         0.1392
     61 H22        -0.2266   -5.4599   13.0001 H         1 <0>         0.1351
     62 H23        -0.1743   -4.9277   10.6000 H         1 <0>         0.1334
     63 H24        -0.6530   -7.3341   14.6669 H         1 <0>         0.4219
     64 H25        -0.6583  -11.5890   16.3309 H         1 <0>         0.1325
     65 H26         0.5234  -13.6172   17.0720 H         1 <0>         0.1350
     66 H27         2.9630  -13.5735   17.3950 H         1 <0>         0.1319
     67 H28         4.2264  -11.5028   16.9780 H         1 <0>         0.1330
     68 H29         3.0533   -9.4732   16.2273 H         1 <0>         0.1283
     69 H30         0.3532   -0.4149   -0.8748 H         1 <0>         0.4243
@<TRIPOS>BOND
     1    1    2 1
     2    1   40 1
     3    1   41 1
     4    1   42 1
     5    2    7 1
     6    2    3 1
     7    2   69 1
     8    3    4 1
     9    3   43 1
    10    3   44 1
    11    4    5 1
    12    4   45 1
    13    4   46 1
    14    5    6 1
    15    5    8 1
    16    6    7 1
    17    6   47 1
    18    6   48 1
    19    7   49 1
    20    7   50 1
    21    8   13 ar
    22    8    9 ar
    23    9   10 ar
    24    9   51 1
    25   10   11 ar
    26   10   52 1
    27   11   12 ar
    28   11   53 1
    29   12   13 ar
    30   12   14 1
    31   13   54 1
    32   14   18 2
    33   14   15 1
    34   15   16 2
    35   15   55 1
    36   16   17 1
    37   17   22 1
    38   17   18 1
    39   18   19 1
    40   19   20 2
    41   20   21 1
    42   20   56 1
    43   21   22 2
    44   21   24 1
    45   22   23 1
    46   23   57 1
    47   23   58 1
    48   24   29 ar
    49   24   25 ar
    50   25   26 ar
    51   25   59 1
    52   26   27 ar
    53   26   60 1
    54   27   28 ar
    55   27   30 1
    56   28   29 ar
    57   28   61 1
    58   29   62 1
    59   30   31 am
    60   30   63 1
    61   31   32 2
    62   31   33 1
    63   33   34 1
    64   34   39 ar
    65   34   35 ar
    66   35   36 ar
    67   35   64 1
    68   36   37 ar
    69   36   65 1
    70   37   38 ar
    71   37   66 1
    72   38   39 ar
    73   38   67 1
    74   39   68 1
@<TRIPOS>MOLECULE
CHEMBL1085564__1
   68    73     0     0     0
SMALL
USER_CHARGES

@<TRIPOS>ATOM
      1 C1         -0.1476    1.3804   -0.0593 C.3       1 <0>         0.0243
      2 N1         -0.1200   -0.0884   -0.0552 N.3       1 <0>        -0.5424
      3 C2         -1.4786   -0.6406   -0.1405 C.3       1 <0>         0.0381
      4 C3         -1.3983   -2.1608   -0.3158 C.3       1 <0>         0.1265
      5 N2         -0.5694   -2.7128    0.7665 N.pl3     1 <0>        -0.6330
      6 C4          0.7543   -2.1167    1.0025 C.3       1 <0>         0.1270
      7 C5          0.5892   -0.5982    1.1259 C.3       1 <0>         0.0386
      8 C6         -1.0271   -3.7754    1.5493 C.ar      1 <0>         0.2209
      9 C7         -2.3211   -4.2556    1.3818 C.ar      1 <0>        -0.2035
     10 C8         -2.7780   -5.3067    2.1541 C.ar      1 <0>        -0.0695
     11 C9         -1.9524   -5.8867    3.0962 C.ar      1 <0>        -0.1531
     12 C10        -0.6521   -5.4122    3.2714 C.ar      1 <0>         0.0591
     13 C11        -0.1891   -4.3552    2.4894 C.ar      1 <0>        -0.1917
     14 C12         0.2352   -6.0327    4.2820 C.2       1 <0>        -0.2118
     15 C13         1.5481   -6.4740    4.0759 C.2       1 <0>         0.1211
     16 N3          2.0107   -6.9642    5.1993 N.2       1 <0>        -0.3259
     17 N4          1.0241   -6.8654    6.1864 N.pl3     1 <0>        -0.3441
     18 C14        -0.0802   -6.2820    5.6238 C.2       1 <0>         0.3163
     19 N5         -1.1842   -6.0574    6.3448 N.2       1 <0>        -0.4999
     20 C15        -1.2496   -6.3837    7.6160 C.2       1 <0>         0.2348
     21 C16        -0.1471   -6.9822    8.2491 C.2       1 <0>        -0.2610
     22 C17         1.0039   -7.2270    7.5066 C.2       1 <0>         0.5040
     23 N6          2.1046   -7.8094    8.0911 N.pl3     1 <0>        -0.8239
     24 C18        -0.2117   -7.3534    9.6832 C.ar      1 <0>        -0.0335
     25 C19        -0.1386   -8.6933   10.0618 C.ar      1 <0>        -0.0927
     26 C20        -0.1990   -9.0358   11.3962 C.ar      1 <0>        -0.1130
     27 C21        -0.3331   -8.0470   12.3631 C.ar      1 <0>         0.1623
     28 C22        -0.4067   -6.7110   11.9885 C.ar      1 <0>        -0.1327
     29 C23        -0.3400   -6.3627   10.6559 C.ar      1 <0>        -0.0784
     30 N7         -0.3947   -8.3974   13.7168 N.am      1 <0>        -0.6481
     31 C24         0.3197   -9.4444   14.1751 C.2       1 <0>         0.6468
     32 O1          1.0930  -10.0221   13.4368 O.2       1 <0>        -0.5342
     33 O2          0.1764   -9.8505   15.4513 O.3       1 <0>        -0.3021
     34 C25         0.8373  -10.9723   15.8420 C.ar      1 <0>         0.0963
     35 C26         0.1455  -12.1627   16.0115 C.ar      1 <0>        -0.1146
     36 C27         0.8195  -13.3015   16.4082 C.ar      1 <0>        -0.1059
     37 C28         2.1824  -13.2554   16.6363 C.ar      1 <0>        -0.1112
     38 C29         2.8742  -12.0702   16.4681 C.ar      1 <0>        -0.1054
     39 C30         2.2056  -10.9299   16.0665 C.ar      1 <0>        -0.1135
     40 H1          0.8730    1.7629   -0.0724 H         1 <0>         0.0700
     41 H2         -0.6785    1.7313   -0.9443 H         1 <0>         0.0700
     42 H3         -0.6577    1.7368    0.8355 H         1 <0>         0.0254
     43 H4         -2.0238   -0.4083    0.7743 H         1 <0>         0.0383
     44 H5         -1.9962   -0.2029   -0.9941 H         1 <0>         0.0849
     45 H6         -2.3995   -2.5887   -0.2649 H         1 <0>         0.0874
     46 H7         -0.9456   -2.3949   -1.2794 H         1 <0>         0.0688
     47 H8          1.1762   -2.5153    1.9251 H         1 <0>         0.0859
     48 H9          1.4138   -2.3465    0.1657 H         1 <0>         0.0687
     49 H10         1.5713   -0.1297    1.1908 H         1 <0>         0.0845
     50 H11         0.0152   -0.3664    2.0231 H         1 <0>         0.0381
     51 H12        -2.9714   -3.8057    0.6462 H         1 <0>         0.1189
     52 H13        -3.7843   -5.6753    2.0203 H         1 <0>         0.1195
     53 H14        -2.3131   -6.7077    3.6981 H         1 <0>         0.1155
     54 H15         0.8179   -3.9867    2.6181 H         1 <0>         0.1195
     55 H16         2.0903   -6.4196    3.1435 H         1 <0>         0.1991
     56 H17        -2.1529   -6.1912    8.1758 H         1 <0>         0.1780
     57 H18         2.9054   -7.9675    7.5669 H         1 <0>         0.4174
     58 H19         2.0800   -8.0620    9.0273 H         1 <0>         0.4252
     59 H20        -0.0351   -9.4623    9.3106 H         1 <0>         0.1284
     60 H21        -0.1424  -10.0735   11.6899 H         1 <0>         0.1375
     61 H22        -0.5116   -5.9444   12.7420 H         1 <0>         0.1338
     62 H23        -0.3924   -5.3237   10.3656 H         1 <0>         0.1342
     63 H24        -0.9514   -7.8867   14.3252 H         1 <0>         0.4210
     64 H25        -0.9192  -12.1991   15.8338 H         1 <0>         0.1325
     65 H26         0.2812  -14.2284   16.5406 H         1 <0>         0.1343
     66 H27         2.7074  -14.1467   16.9468 H         1 <0>         0.1310
     67 H28         3.9387  -12.0366   16.6473 H         1 <0>         0.1325
     68 H29         2.7471  -10.0053   15.9312 H         1 <0>         0.1285
@<TRIPOS>BOND
     1    1    2 1
     2    1   40 1
     3    1   41 1
     4    1   42 1
     5    2    7 1
     6    2    3 1
     7    3    4 1
     8    3   43 1
     9    3   44 1
    10    4    5 1
    11    4   45 1
    12    4   46 1
    13    5    6 1
    14    5    8 1
    15    6    7 1
    16    6   47 1
    17    6   48 1
    18    7   49 1
    19    7   50 1
    20    8   13 ar
    21    8    9 ar
    22    9   10 ar
    23    9   51 1
    24   10   11 ar
    25   10   52 1
    26   11   12 ar
    27   11   53 1
    28   12   13 ar
    29   12   14 1
    30   13   54 1
    31   14   18 2
    32   14   15 1
    33   15   16 2
    34   15   55 1
    35   16   17 1
    36   17   22 1
    37   17   18 1
    38   18   19 1
    39   19   20 2
    40   20   21 1
    41   20   56 1
    42   21   22 2
    43   21   24 1
    44   22   23 1
    45   23   57 1
    46   23   58 1
    47   24   29 ar
    48   24   25 ar
    49   25   26 ar
    50   25   59 1
    51   26   27 ar
    52   26   60 1
    53   27   28 ar
    54   27   30 1
    55   28   29 ar
    56   28   61 1
    57   29   62 1
    58   30   31 am
    59   30   63 1
    60   31   32 2
    61   31   33 1
    62   33   34 1
    63   34   39 ar
    64   34   35 ar
    65   35   36 ar
    66   35   64 1
    67   36   37 ar
    68   36   65 1
    69   37   38 ar
    70   37   66 1
    71   38   39 ar
    72   38   67 1
    73   39   68 1
@<TRIPOS>MOLECULE
CHEMBL281957
   61    64     0     0     0
SMALL
USER_CHARGES

@<TRIPOS>ATOM
      1 C1         -0.0686    4.3922    1.6498 C.3       1 <0>        -0.1887
      2 C2         -0.7933    3.1677    2.2121 C.3       1 <0>        -0.0129
      3 N1         -1.9050    3.6061    3.0664 N.4       1 <0>        -0.3853
      4 C3         -2.8361    4.4235    2.2773 C.3       1 <0>        -0.0158
      5 C4         -4.0039    4.8641    3.1622 C.3       1 <0>        -0.1895
      6 C5         -2.6110    2.4304    3.5931 C.3       1 <0>         0.0342
      7 C6         -1.6906    1.6572    4.5020 C.2       1 <0>        -0.2485
      8 C7         -2.0628    1.3842    5.7494 C.2       1 <0>        -0.0245
      9 C8         -1.1645    0.6296    6.6364 C.2       1 <0>         0.0953
     10 C9         -1.6102    0.2608    7.8653 C.2       1 <0>        -0.0701
     11 C10        -0.7652   -0.4662    8.7380 C.ar      1 <0>        -0.0103
     12 C11        -1.1970   -0.8611   10.0117 C.ar      1 <0>        -0.1193
     13 C12        -0.3670   -1.5600   10.8336 C.ar      1 <0>        -0.0321
     14 C13         0.9320   -1.8971   10.4243 C.ar      1 <0>         0.0853
     15 C14         1.3889   -1.5141    9.1549 C.ar      1 <0>         0.0915
     16 C15         0.5408   -0.7957    8.3042 C.ar      1 <0>        -0.1145
     17 C16         0.9655   -0.3710    6.9690 C.2       1 <0>         0.5474
     18 N2          0.1002    0.3142    6.1935 N.am      1 <0>        -0.6243
     19 O1          2.0827   -0.6369    6.5622 O.2       1 <0>        -0.5309
     20 N3          2.6813   -1.9842    9.0499 N.pl3     1 <0>        -0.4923
     21 C17         2.9775   -2.6242   10.2198 C.2       1 <0>         0.5496
     22 N4          1.9469   -2.5714   11.0262 N.2       1 <0>        -0.5138
     23 N5          4.1819   -3.2342   10.5087 N.pl3     1 <0>        -0.6522
     24 C18         4.4193   -3.7416   11.7909 C.ar      1 <0>         0.1685
     25 C19         3.7409   -4.8725   12.2291 C.ar      1 <0>        -0.0080
     26 C20         3.9783   -5.3711   13.4961 C.ar      1 <0>        -0.0989
     27 C21         4.8893   -4.7459   14.3276 C.ar      1 <0>        -0.0856
     28 C22         5.5662   -3.6203   13.8950 C.ar      1 <0>        -0.0992
     29 C23         5.3382   -3.1193   12.6271 C.ar      1 <0>        -0.0261
     30 Cl1         6.1940   -1.7105   12.0825 Cl        1 <0>        -0.0485
     31 Cl2         2.5962   -5.6576   11.1865 Cl        1 <0>        -0.0399
     32 C24         3.5713   -1.8270    7.8969 C.3       1 <0>         0.0849
     33 C25        -3.0060    0.6262    8.3005 C.3       1 <0>        -0.1172
     34 H1          0.8172    4.0705    1.1021 H         1 <0>         0.1054
     35 H2         -0.7353    4.9321    0.9775 H         1 <0>         0.0818
     36 H3          0.2287    5.0465    2.4694 H         1 <0>         0.0794
     37 H4         -1.1820    2.5664    1.3902 H         1 <0>         0.1298
     38 H5         -0.0961    2.5713    2.8006 H         1 <0>         0.1275
     39 H6         -2.3158    5.3030    1.8979 H         1 <0>         0.1329
     40 H7         -3.2155    3.8368    1.4407 H         1 <0>         0.1297
     41 H8         -4.6378    5.5571    2.6089 H         1 <0>         0.1063
     42 H9         -4.5880    3.9914    3.4542 H         1 <0>         0.0813
     43 H10        -3.6179    5.3579    4.0540 H         1 <0>         0.0801
     44 H11        -3.4877    2.7541    4.1539 H         1 <0>         0.1366
     45 H12        -2.9237    1.7935    2.7656 H         1 <0>         0.1375
     46 H13        -0.7287    1.3248    4.1405 H         1 <0>         0.1287
     47 H14        -3.0247    1.7167    6.1109 H         1 <0>         0.1561
     48 H15        -2.1936   -0.6093   10.3429 H         1 <0>         0.1437
     49 H16        -0.7122   -1.8582   11.8125 H         1 <0>         0.1412
     50 H17         4.8635   -3.3111    9.8228 H         1 <0>         0.4227
     51 H18         3.4515   -6.2500   13.8374 H         1 <0>         0.1466
     52 H19         5.0723   -5.1373   15.3174 H         1 <0>         0.1485
     53 H20         6.2768   -3.1344   14.5473 H         1 <0>         0.1468
     54 H21         3.9111   -0.7930    7.8384 H         1 <0>         0.0784
     55 H22         4.4319   -2.4864    8.0096 H         1 <0>         0.0679
     56 H23         3.0331   -2.0847    6.9847 H         1 <0>         0.1126
     57 H24        -3.5276    1.1134    7.4767 H         1 <0>         0.0702
     58 H25        -3.5448   -0.2764    8.5886 H         1 <0>         0.0857
     59 H26        -2.9551    1.3060    9.1510 H         1 <0>         0.0848
     60 H27         0.3764    0.5941    5.3067 H         1 <0>         0.4063
     61 H28        -1.5441    4.1533    3.8335 H         1 <0>         0.4232
@<TRIPOS>BOND
     1    1    2 1
     2    1   34 1
     3    1   35 1
     4    1   36 1
     5    2    3 1
     6    2   37 1
     7    2   38 1
     8    3    4 1
     9    3    6 1
    10    3   61 1
    11    4    5 1
    12    4   39 1
    13    4   40 1
    14    5   41 1
    15    5   42 1
    16    5   43 1
    17    6    7 1
    18    6   44 1
    19    6   45 1
    20    7    8 2
    21    7   46 1
    22    8    9 1
    23    8   47 1
    24    9   18 1
    25    9   10 2
    26   10   11 1
    27   10   33 1
    28   11   16 ar
    29   11   12 ar
    30   12   13 ar
    31   12   48 1
    32   13   14 ar
    33   13   49 1
    34   14   22 1
    35   14   15 ar
    36   15   16 ar
    37   15   20 1
    38   16   17 1
    39   17   18 am
    40   17   19 2
    41   18   60 1
    42   20   21 1
    43   20   32 1
    44   21   22 2
    45   21   23 1
    46   23   24 1
    47   23   50 1
    48   24   29 ar
    49   24   25 ar
    50   25   26 ar
    51   25   31 1
    52   26   27 ar
    53   26   51 1
    54   27   28 ar
    55   27   52 1
    56   28   29 ar
    57   28   53 1
    58   29   30 1
    59   32   54 1
    60   32   55 1
    61   32   56 1
    62   33   57 1
    63   33   58 1
    64   33   59 1
@<TRIPOS>MOLECULE
CHEMBL281957__1
   60    63     0     0     0
SMALL
USER_CHARGES

@<TRIPOS>ATOM
      1 C1          0.4359    5.1250    1.0907 C.3       1 <0>        -0.1501
      2 C2         -0.3157    3.8852    1.5794 C.3       1 <0>         0.0443
      3 N1          0.4212    3.2733    2.6932 N.3       1 <0>        -0.5340
      4 C3          0.4342    4.1586    3.8653 C.3       1 <0>         0.0443
      5 C4         -1.0034    4.4477    4.3021 C.3       1 <0>        -0.1941
      6 C5         -0.1363    1.9575    3.0335 C.3       1 <0>         0.0769
      7 C6          0.7609    1.2751    4.0336 C.2       1 <0>        -0.1150
      8 C7          0.2633    0.8482    5.1908 C.2       1 <0>        -0.1345
      9 C8          1.1391    0.1822    6.1669 C.2       1 <0>         0.1604
     10 C9          0.5955   -0.3116    7.3095 C.2       1 <0>        -0.1356
     11 C10         1.4168   -0.9570    8.2650 C.ar      1 <0>         0.0223
     12 C11         0.8848   -1.4771    9.4530 C.ar      1 <0>        -0.1299
     13 C12         1.6939   -2.0941   10.3571 C.ar      1 <0>        -0.0310
     14 C13         3.0708   -2.2211   10.1192 C.ar      1 <0>         0.0649
     15 C14         3.6286   -1.7095    8.9385 C.ar      1 <0>         0.1009
     16 C15         2.8027   -1.0742    8.0042 C.ar      1 <0>        -0.1361
     17 C16         3.3313   -0.5225    6.7553 C.2       1 <0>         0.5462
     18 N2          2.4836    0.0736    5.8918 N.am      1 <0>        -0.6211
     19 O1          4.5192   -0.6050    6.4973 O.2       1 <0>        -0.5410
     20 N3          4.9788   -1.9852    8.9965 N.pl3     1 <0>        -0.4907
     21 C17         5.2103   -2.6385   10.1736 C.2       1 <0>         0.5357
     22 N4          4.0864   -2.7758   10.8318 N.2       1 <0>        -0.5138
     23 N5          6.4431   -3.0861   10.6046 N.pl3     1 <0>        -0.6557
     24 C18         6.5705   -3.6787   11.8657 C.ar      1 <0>         0.1776
     25 C19         5.9988   -4.9210   12.1125 C.ar      1 <0>        -0.0103
     26 C20         6.1271   -5.5035   13.3594 C.ar      1 <0>        -0.0993
     27 C21         6.8230   -4.8514   14.3608 C.ar      1 <0>        -0.0908
     28 C22         7.3933   -3.6152   14.1189 C.ar      1 <0>        -0.0997
     29 C23         7.2740   -3.0290   12.8728 C.ar      1 <0>        -0.0288
     30 Cl1         7.9966   -1.4802   12.5681 Cl        1 <0>        -0.0487
     31 Cl2         5.1239   -5.7400   10.8565 Cl        1 <0>        -0.0392
     32 C24         5.9793   -1.6417    7.9829 C.3       1 <0>         0.0873
     33 C25        -0.8839   -0.1718    7.5606 C.3       1 <0>        -0.1051
     34 H1          1.4314    4.8368    0.7530 H         1 <0>         0.0631
     35 H2         -0.1108    5.5791    0.2642 H         1 <0>         0.0597
     36 H3          0.5226    5.8425    1.9067 H         1 <0>         0.0551
     37 H4         -1.3111    4.1733    1.9171 H         1 <0>         0.0416
     38 H5         -0.4023    3.1677    0.7634 H         1 <0>         0.0742
     39 H6          0.9712    3.6740    4.6807 H         1 <0>         0.0756
     40 H7          0.9310    5.0942    3.6085 H         1 <0>         0.0790
     41 H8         -1.4918    3.5151    4.5845 H         1 <0>         0.0563
     42 H9         -0.9945    5.1261    5.1552 H         1 <0>         0.0632
     43 H10        -1.5480    4.9079    3.4776 H         1 <0>         0.0597
     44 H11        -1.1298    2.0841    3.4637 H         1 <0>         0.0493
     45 H12        -0.2056    1.3481    2.1324 H         1 <0>         0.0896
     46 H13         1.8081    1.1327    3.8107 H         1 <0>         0.1140
     47 H14        -0.7838    0.9905    5.4137 H         1 <0>         0.1454
     48 H15        -0.1729   -1.3873    9.6523 H         1 <0>         0.1403
     49 H16         1.2711   -2.4904   11.2684 H         1 <0>         0.1354
     50 H17         7.2210   -2.9897   10.0332 H         1 <0>         0.4213
     51 H18         5.6830   -6.4689   13.5519 H         1 <0>         0.1446
     52 H19         6.9211   -5.3087   15.3343 H         1 <0>         0.1461
     53 H20         7.9359   -3.1087   14.9034 H         1 <0>         0.1447
     54 H21         6.1541   -0.5659    7.9950 H         1 <0>         0.0786
     55 H22         6.9111   -2.1637    8.2006 H         1 <0>         0.0636
     56 H23         5.6170   -1.9399    6.9991 H         1 <0>         0.1119
     57 H24        -1.3488    0.3395    6.7177 H         1 <0>         0.0717
     58 H25        -1.3279   -1.1606    7.6756 H         1 <0>         0.0739
     59 H26        -1.0449    0.4068    8.4702 H         1 <0>         0.0734
     60 H27         2.8293    0.4370    5.0615 H         1 <0>         0.4124
@<TRIPOS>BOND
     1    1    2 1
     2    1   34 1
     3    1   35 1
     4    1   36 1
     5    2    3 1
     6    2   37 1
     7    2   38 1
     8    3    4 1
     9    3    6 1
    10    4    5 1
    11    4   39 1
    12    4   40 1
    13    5   41 1
    14    5   42 1
    15    5   43 1
    16    6    7 1
    17    6   44 1
    18    6   45 1
    19    7    8 2
    20    7   46 1
    21    8    9 1
    22    8   47 1
    23    9   18 1
    24    9   10 2
    25   10   11 1
    26   10   33 1
    27   11   16 ar
    28   11   12 ar
    29   12   13 ar
    30   12   48 1
    31   13   14 ar
    32   13   49 1
    33   14   22 1
    34   14   15 ar
    35   15   16 ar
    36   15   20 1
    37   16   17 1
    38   17   18 am
    39   17   19 2
    40   18   60 1
    41   20   21 1
    42   20   32 1
    43   21   22 2
    44   21   23 1
    45   23   24 1
    46   23   50 1
    47   24   29 ar
    48   24   25 ar
    49   25   26 ar
    50   25   31 1
    51   26   27 ar
    52   26   51 1
    53   27   28 ar
    54   27   52 1
    55   28   29 ar
    56   28   53 1
    57   29   30 1
    58   32   54 1
    59   32   55 1
    60   32   56 1
    61   33   57 1
    62   33   58 1
    63   33   59 1
@<TRIPOS>MOLECULE
CHEMBL429743
   57    61     0     0     0
SMALL
USER_CHARGES

@<TRIPOS>ATOM
      1 C1         -1.3300    0.1029   -1.5514 C.3       1 <0>         0.0149
      2 O1         -0.4784   -0.5556   -0.6115 O.3       1 <0>        -0.2864
      3 C2          0.8614   -0.4714   -0.8278 C.ar      1 <0>         0.1348
      4 C3          1.3296    0.2258   -1.9038 C.ar      1 <0>        -0.1364
      5 C4          2.7120    0.3129   -2.1266 C.ar      1 <0>        -0.0899
      6 C5          3.2333    1.0263   -3.2293 C.ar      1 <0>         0.2830
      7 C6          4.6077    1.0685   -3.3836 C.ar      1 <0>        -0.2641
      8 C7          5.4241    0.4194   -2.4659 C.ar      1 <0>         0.2261
      9 N1          4.9295   -0.2404   -1.4451 N.ar      1 <0>        -0.4814
     10 C8          3.6103   -0.3223   -1.2349 C.ar      1 <0>         0.1817
     11 C9          3.0978   -1.0328   -0.1368 C.ar      1 <0>        -0.2357
     12 C10         1.7485   -1.0969    0.0599 C.ar      1 <0>         0.2162
     13 O2          1.2582   -1.7806    1.1270 O.3       1 <0>        -0.2775
     14 C11         2.2108   -2.3966    1.9960 C.3       1 <0>         0.0116
     15 O3          2.4118    1.6501   -4.1095 O.3       1 <0>        -0.2128
     16 C12         2.9792    2.4005   -5.0899 C.ar      1 <0>         0.0441
     17 C13         3.5739    1.7687   -6.1861 C.ar      1 <0>        -0.1346
     18 C14         4.1500    2.4949   -7.1832 C.ar      1 <0>        -0.0847
     19 C15         4.1493    3.8952   -7.1142 C.ar      1 <0>        -0.0008
     20 C16         3.5480    4.5397   -6.0055 C.ar      1 <0>        -0.0533
     21 C17         2.9566    3.7633   -4.9949 C.ar      1 <0>        -0.0781
     22 C18         3.5472    5.9439   -5.9369 C.ar      1 <0>        -0.0644
     23 C19         4.1215    6.6778   -6.9314 C.ar      1 <0>        -0.1164
     24 C20         4.7155    6.0638   -8.0266 C.ar      1 <0>        -0.0508
     25 C21         4.7399    4.6809   -8.1354 C.ar      1 <0>        -0.1284
     26 C22         5.3730    4.0359   -9.3002 C.2       1 <0>         0.5660
     27 O4          5.2978    2.8305   -9.4432 O.2       1 <0>        -0.5113
     28 N2          6.0350    4.7820  -10.2065 N.am      1 <0>        -0.6628
     29 C23         6.7115    4.1624  -11.2625 C.ar      1 <0>         0.1396
     30 C24         7.9063    4.6939  -11.7305 C.ar      1 <0>        -0.1274
     31 C25         8.5724    4.0799  -12.7729 C.ar      1 <0>        -0.0903
     32 C26         8.0502    2.9363  -13.3514 C.ar      1 <0>        -0.0443
     33 C27         6.8597    2.4049  -12.8873 C.ar      1 <0>        -0.0915
     34 C28         6.1926    3.0114  -11.8411 C.ar      1 <0>        -0.1058
     35 Cl1         8.8898    2.1673  -14.6619 Cl        1 <0>        -0.0616
     36 H1         -1.1017    1.1686   -1.5640 H         1 <0>         0.0668
     37 H2         -1.1668   -0.3154   -2.5446 H         1 <0>         0.0673
     38 H3         -2.3709   -0.0423   -1.2625 H         1 <0>         0.1187
     39 H4          0.6394    0.7077   -2.5804 H         1 <0>         0.1725
     40 H5          5.0440    1.6035   -4.2142 H         1 <0>         0.1851
     41 H6          6.4955    0.4587   -2.5965 H         1 <0>         0.2124
     42 H7          3.7695   -1.5228    0.5525 H         1 <0>         0.1714
     43 H8          2.8029   -3.1180    1.4330 H         1 <0>         0.0694
     44 H9          2.8681   -1.6340    2.4136 H         1 <0>         0.0693
     45 H10         1.6878   -2.9077    2.8044 H         1 <0>         0.1216
     46 H11         3.5766    0.6902   -6.2425 H         1 <0>         0.1385
     47 H12         4.6062    1.9941   -8.0243 H         1 <0>         0.1838
     48 H13         2.4903    4.2409   -4.1459 H         1 <0>         0.1467
     49 H14         3.0902    6.4421   -5.0947 H         1 <0>         0.1419
     50 H15         4.1142    7.7558   -6.8670 H         1 <0>         0.1435
     51 H16         5.1629    6.6690   -8.8012 H         1 <0>         0.1368
     52 H17         6.0424    5.7487  -10.1266 H         1 <0>         0.4137
     53 H18         8.3139    5.5868  -11.2799 H         1 <0>         0.1371
     54 H19         9.5015    4.4928  -13.1372 H         1 <0>         0.1411
     55 H20         6.4541    1.5125  -13.3408 H         1 <0>         0.1395
     56 H21         5.2658    2.5937  -11.4764 H         1 <0>         0.1483
     57 H22         5.5350   -0.6797   -0.8276 H         1 <0>         0.4475
@<TRIPOS>BOND
     1    1    2 1
     2    1   36 1
     3    1   37 1
     4    1   38 1
     5    2    3 1
     6    3   12 ar
     7    3    4 ar
     8    4    5 ar
     9    4   39 1
    10    5   10 ar
    11    5    6 ar
    12    6    7 ar
    13    6   15 1
    14    7    8 ar
    15    7   40 1
    16    8    9 ar
    17    8   41 1
    18    9   10 ar
    19    9   57 1
    20   10   11 ar
    21   11   12 ar
    22   11   42 1
    23   12   13 1
    24   13   14 1
    25   14   43 1
    26   14   44 1
    27   14   45 1
    28   15   16 1
    29   16   21 ar
    30   16   17 ar
    31   17   18 ar
    32   17   46 1
    33   18   19 ar
    34   18   47 1
    35   19   25 ar
    36   19   20 ar
    37   20   21 ar
    38   20   22 ar
    39   21   48 1
    40   22   23 ar
    41   22   49 1
    42   23   24 ar
    43   23   50 1
    44   24   25 ar
    45   24   51 1
    46   25   26 1
    47   26   27 2
    48   26   28 am
    49   28   29 1
    50   28   52 1
    51   29   34 ar
    52   29   30 ar
    53   30   31 ar
    54   30   53 1
    55   31   32 ar
    56   31   54 1
    57   32   33 ar
    58   32   35 1
    59   33   34 ar
    60   33   55 1
    61   34   56 1
@<TRIPOS>MOLECULE
CHEMBL248286
   72    76     0     0     0
SMALL
USER_CHARGES

@<TRIPOS>ATOM
      1 C1         -1.4841   -3.4791    0.0151 C.3       1 <0>        -0.0545
      2 N1         -0.3172   -2.6693    0.3902 N.4       1 <0>        -0.3890
      3 C2          0.8083   -2.9920   -0.4969 C.3       1 <0>        -0.0483
      4 C3         -0.6487   -1.2439    0.2619 C.3       1 <0>        -0.0023
      5 C4         -1.7362   -0.8801    1.2747 C.3       1 <0>         0.0229
      6 O1         -1.2229   -1.0311    2.5998 O.3       1 <0>        -0.3244
      7 C5         -2.0678   -0.7458    3.6248 C.ar      1 <0>         0.1332
      8 C6         -3.3670   -0.3342    3.3569 C.ar      1 <0>        -0.2012
      9 C7         -4.2277   -0.0441    4.3933 C.ar      1 <0>        -0.0382
     10 C8         -3.7914   -0.1646    5.7156 C.ar      1 <0>        -0.0497
     11 C9         -2.4832   -0.5791    5.9802 C.ar      1 <0>        -0.0456
     12 C10        -1.6313   -0.8721    4.9373 C.ar      1 <0>        -0.1386
     13 C11        -4.7085    0.1452    6.8283 C.2       1 <0>         0.0811
     14 C12        -5.9971   -0.3027    6.9377 C.2       1 <0>        -0.0866
     15 C13        -6.5066    0.2572    8.1962 C.ar      1 <0>        -0.2780
     16 C14        -7.7204    0.1957    8.8936 C.ar      1 <0>         0.4978
     17 N2         -7.8203    0.8544   10.0453 N.ar      1 <0>        -0.5838
     18 C15        -6.8020    1.5484   10.5194 C.ar      1 <0>         0.3804
     19 N3         -5.6459    1.6321    9.8959 N.ar      1 <0>        -0.5383
     20 C16        -5.4496    1.0073    8.7373 C.ar      1 <0>         0.3365
     21 O2         -4.4049    0.9085    7.8972 O.3       1 <0>        -0.1632
     22 N4         -8.7877   -0.5308    8.3971 N.pl3     1 <0>        -0.7040
     23 C17       -10.0483   -0.5824    9.1416 C.3       1 <0>         0.1277
     24 C18       -11.0557   -1.4459    8.3797 C.3       1 <0>         0.0427
     25 N5        -12.3198   -1.4976    9.1263 N.3       1 <0>        -0.5336
     26 C19       -12.9613   -0.1759    9.1681 C.3       1 <0>         0.0166
     27 C20       -14.2410   -0.2595   10.0030 C.3       1 <0>        -0.0030
     28 N6        -15.1513   -1.2459    9.4066 N.4       1 <0>        -0.5088
     29 C21       -14.5062   -2.5655    9.3943 C.3       1 <0>        -0.0027
     30 C22       -13.2287   -2.5010    8.5544 C.3       1 <0>         0.0253
     31 C23        -6.7259   -1.1703    5.9854 C.ar      1 <0>        -0.0243
     32 C24        -7.8035   -0.6626    5.2587 C.ar      1 <0>        -0.1145
     33 C25        -8.4784   -1.4763    4.3722 C.ar      1 <0>        -0.1172
     34 C26        -8.0889   -2.7931    4.2031 C.ar      1 <0>        -0.1125
     35 C27        -7.0213   -3.3025    4.9207 C.ar      1 <0>        -0.1136
     36 C28        -6.3348   -2.4976    5.8063 C.ar      1 <0>        -0.0949
     37 H1         -1.7607   -3.2618   -1.0166 H         1 <0>         0.1253
     38 H2         -1.2381   -4.5367    0.1103 H         1 <0>         0.1280
     39 H3         -2.3192   -3.2396    0.6734 H         1 <0>         0.1199
     40 H4          0.5317   -2.7747   -1.5286 H         1 <0>         0.1239
     41 H5          1.6742   -2.3912   -0.2187 H         1 <0>         0.1259
     42 H6          1.0543   -4.0496   -0.4018 H         1 <0>         0.1268
     43 H7          0.2416   -0.6451    0.4540 H         1 <0>         0.1444
     44 H8         -1.0102   -1.0443   -0.7468 H         1 <0>         0.1511
     45 H9         -2.0452    0.1537    1.1204 H         1 <0>         0.1112
     46 H10        -2.5936   -1.5396    1.1398 H         1 <0>         0.0885
     47 H11        -3.7032   -0.2411    2.3348 H         1 <0>         0.1353
     48 H12        -5.2377    0.2762    4.1841 H         1 <0>         0.1347
     49 H13        -2.1417   -0.6736    7.0004 H         1 <0>         0.1437
     50 H14        -0.6215   -1.1964    5.1408 H         1 <0>         0.1429
     51 H15        -6.9228    2.0693   11.4577 H         1 <0>         0.2161
     52 H16        -8.7014   -1.0062    7.5559 H         1 <0>         0.4128
     53 H17        -9.8712   -1.0144   10.1266 H         1 <0>         0.0859
     54 H18       -10.4458    0.4264    9.2534 H         1 <0>         0.0724
     55 H19       -11.2329   -1.0139    7.3948 H         1 <0>         0.0533
     56 H20       -10.6583   -2.4547    8.2679 H         1 <0>         0.0945
     57 H21       -12.2794    0.5452    9.6188 H         1 <0>         0.1279
     58 H22       -13.2082    0.1408    8.1547 H         1 <0>         0.0633
     59 H23       -13.9921   -0.5629   11.0199 H         1 <0>         0.1423
     60 H24       -14.7258    0.7166   10.0235 H         1 <0>         0.1410
     61 H25       -16.0001   -1.2918    9.9503 H         1 <0>         0.4366
     62 H26       -14.2560   -2.8571   10.4144 H         1 <0>         0.1418
     63 H27       -15.1876   -3.2990    8.9635 H         1 <0>         0.1406
     64 H28       -13.4800   -2.2227    7.5309 H         1 <0>         0.0627
     65 H29       -12.7419   -3.4763    8.5573 H         1 <0>         0.1247
     66 H30        -8.1087    0.3650    5.3901 H         1 <0>         0.1237
     67 H31        -9.3128   -1.0847    3.8094 H         1 <0>         0.1266
     68 H32        -8.6207   -3.4261    3.5082 H         1 <0>         0.1262
     69 H33        -6.7223   -4.3313    4.7845 H         1 <0>         0.1278
     70 H34        -5.4987   -2.8952    6.3626 H         1 <0>         0.1248
     71 H35       -15.3723   -0.9710    8.4613 H         1 <0>         0.4260
     72 H36        -0.0611   -2.8705    1.3452 H         1 <0>         0.4336
@<TRIPOS>BOND
     1    1    2 1
     2    1   37 1
     3    1   38 1
     4    1   39 1
     5    2    3 1
     6    2    4 1
     7    2   72 1
     8    3   40 1
     9    3   41 1
    10    3   42 1
    11    4    5 1
    12    4   43 1
    13    4   44 1
    14    5    6 1
    15    5   45 1
    16    5   46 1
    17    6    7 1
    18    7   12 ar
    19    7    8 ar
    20    8    9 ar
    21    8   47 1
    22    9   10 ar
    23    9   48 1
    24   10   11 ar
    25   10   13 1
    26   11   12 ar
    27   11   49 1
    28   12   50 1
    29   13   21 1
    30   13   14 2
    31   14   15 1
    32   14   31 1
    33   15   20 ar
    34   15   16 ar
    35   16   17 ar
    36   16   22 1
    37   17   18 ar
    38   18   19 ar
    39   18   51 1
    40   19   20 ar
    41   20   21 1
    42   22   23 1
    43   22   52 1
    44   23   24 1
    45   23   53 1
    46   23   54 1
    47   24   25 1
    48   24   55 1
    49   24   56 1
    50   25   30 1
    51   25   26 1
    52   26   27 1
    53   26   57 1
    54   26   58 1
    55   27   28 1
    56   27   59 1
    57   27   60 1
    58   28   29 1
    59   28   61 1
    60   28   71 1
    61   29   30 1
    62   29   62 1
    63   29   63 1
    64   30   64 1
    65   30   65 1
    66   31   36 ar
    67   31   32 ar
    68   32   33 ar
    69   32   66 1
    70   33   34 ar
    71   33   67 1
    72   34   35 ar
    73   34   68 1
    74   35   36 ar
    75   35   69 1
    76   36   70 1
@<TRIPOS>MOLECULE
CHEMBL312933
   52    55     0     0     0
SMALL
USER_CHARGES

@<TRIPOS>ATOM
      1 C1          0.7685    0.9272    0.4534 C.3       1 <0>        -0.1165
      2 C2          1.4189   -0.4316    0.4972 C.ar      1 <0>        -0.0835
      3 C3          1.6269   -1.1365   -0.6726 C.ar      1 <0>        -0.1045
      4 C4          2.2239   -2.3830   -0.6340 C.ar      1 <0>        -0.1025
      5 C5          2.6150   -2.9288    0.5752 C.ar      1 <0>        -0.1057
      6 C6          2.4100   -2.2292    1.7490 C.ar      1 <0>        -0.0232
      7 C7          1.8147   -0.9735    1.7125 C.ar      1 <0>         0.1385
      8 N1          1.6102   -0.2598    2.8983 N.am      1 <0>        -0.6673
      9 C8          0.9787   -0.8438    3.9359 C.2       1 <0>         0.5539
     10 O1          0.6764   -2.0204    3.8796 O.2       1 <0>        -0.4877
     11 C9          0.6545   -0.0561    5.1395 C.ar      1 <0>        -0.0997
     12 C10         0.9930    1.3024    5.2134 C.ar      1 <0>        -0.0708
     13 C11         0.7047    2.0449    6.3103 C.ar      1 <0>        -0.0632
     14 C12         0.0471    1.4732    7.4281 C.ar      1 <0>         0.1190
     15 C13        -0.2849    0.0997    7.3293 C.ar      1 <0>        -0.1579
     16 C14        -0.0008   -0.6518    6.2228 C.ar      1 <0>         0.0071
     17 S1         -1.0704   -0.2134    8.8921 S.3       1 <0>         0.1062
     18 C15        -0.9148    1.4389    9.5556 C.2       1 <0>         0.3492
     19 N2         -0.3037    2.0761    8.5806 N.2       1 <0>        -0.5333
     20 N3         -1.3308    1.9232   10.7791 N.pl3     1 <0>        -0.5924
     21 C16        -1.2091    3.2793   11.0689 C.ar      1 <0>         0.4282
     22 C17        -0.8130    4.1625   10.0719 C.ar      1 <0>        -0.2139
     23 C18        -0.6945    5.5104   10.3692 C.ar      1 <0>         0.0647
     24 C19        -0.9771    5.9322   11.6582 C.ar      1 <0>        -0.2277
     25 C20        -1.3685    4.9965   12.6085 C.ar      1 <0>         0.4638
     26 N4         -1.4774    3.7151   12.2906 N.ar      1 <0>        -0.5320
     27 N5         -1.6536    5.4104   13.9045 N.pl3     1 <0>        -0.6963
     28 C21        -1.5409    6.8264   14.2627 C.3       1 <0>         0.1137
     29 C22        -1.9074    7.0103   15.7367 C.3       1 <0>         0.0580
     30 O2         -0.9482    6.3361   16.5538 O.3       1 <0>        -0.5766
     31 Cl1         2.9004   -2.9149    3.2666 Cl        1 <0>        -0.0462
     32 H1          1.5351    1.6934    0.3377 H         1 <0>         0.0766
     33 H2          0.0789    0.9729   -0.3895 H         1 <0>         0.0766
     34 H3          0.2210    1.0980    1.3803 H         1 <0>         0.0662
     35 H4          1.3225   -0.7135   -1.6185 H         1 <0>         0.1357
     36 H5          2.3849   -2.9318   -1.5501 H         1 <0>         0.1373
     37 H6          3.0808   -3.9028    0.6019 H         1 <0>         0.1385
     38 H7          1.9228    0.6553    2.9736 H         1 <0>         0.4109
     39 H8          1.4949    1.7677    4.3779 H         1 <0>         0.1431
     40 H9          0.9810    3.0887    6.3330 H         1 <0>         0.1469
     41 H10        -0.2756   -1.6956    6.1871 H         1 <0>         0.1552
     42 H11        -1.7079    1.3185   11.4372 H         1 <0>         0.4439
     43 H12        -0.5994    3.8021    9.0764 H         1 <0>         0.2162
     44 H13        -0.3881    6.2172    9.6123 H         1 <0>         0.1769
     45 H14        -0.8939    6.9762   11.9217 H         1 <0>         0.1778
     46 H15        -1.9272    4.7616   14.5716 H         1 <0>         0.4198
     47 H16        -0.5172    7.1625   14.0982 H         1 <0>         0.0974
     48 H17        -2.2198    7.4129   13.6436 H         1 <0>         0.1038
     49 H18        -1.9099    8.0726   15.9807 H         1 <0>         0.0830
     50 H19        -2.8977    6.5931   15.9197 H         1 <0>         0.0613
     51 H20        -1.1183    6.4105   17.5028 H         1 <0>         0.3968
     52 H21        -1.7560    3.0806   12.9694 H         1 <0>         0.4346
@<TRIPOS>BOND
     1    1    2 1
     2    1   32 1
     3    1   33 1
     4    1   34 1
     5    2    7 ar
     6    2    3 ar
     7    3    4 ar
     8    3   35 1
     9    4    5 ar
    10    4   36 1
    11    5    6 ar
    12    5   37 1
    13    6    7 ar
    14    6   31 1
    15    7    8 1
    16    8    9 am
    17    8   38 1
    18    9   10 2
    19    9   11 1
    20   11   16 ar
    21   11   12 ar
    22   12   13 ar
    23   12   39 1
    24   13   14 ar
    25   13   40 1
    26   14   19 1
    27   14   15 ar
    28   15   16 ar
    29   15   17 1
    30   16   41 1
    31   17   18 1
    32   18   19 2
    33   18   20 1
    34   20   21 1
    35   20   42 1
    36   21   26 ar
    37   21   22 ar
    38   22   23 ar
    39   22   43 1
    40   23   24 ar
    41   23   44 1
    42   24   25 ar
    43   24   45 1
    44   25   26 ar
    45   25   27 1
    46   26   52 1
    47   27   28 1
    48   27   46 1
    49   28   29 1
    50   28   47 1
    51   28   48 1
    52   29   30 1
    53   29   49 1
    54   29   50 1
    55   30   51 1
@<TRIPOS>MOLECULE
CHEMBL312933__1
   51    54     0     0     0
SMALL
USER_CHARGES

@<TRIPOS>ATOM
      1 C1         -1.4169    1.1770    0.2225 C.3       1 <0>        -0.1166
      2 C2         -0.7172   -0.1517    0.0957 C.ar      1 <0>        -0.0857
      3 C3         -0.7323   -0.8289   -1.1083 C.ar      1 <0>        -0.1058
      4 C4         -0.0904   -2.0477   -1.2263 C.ar      1 <0>        -0.1079
      5 C5          0.5690   -2.5936   -0.1400 C.ar      1 <0>        -0.1070
      6 C6          0.5881   -1.9217    1.0673 C.ar      1 <0>        -0.0246
      7 C7         -0.0520   -0.6936    1.1872 C.ar      1 <0>         0.1460
      8 N1         -0.0305   -0.0077    2.4064 N.am      1 <0>        -0.6728
      9 C8         -0.4049   -0.6348    3.5391 C.2       1 <0>         0.5621
     10 O1         -0.6644   -1.8228    3.5191 O.2       1 <0>        -0.4982
     11 C9         -0.4999    0.1194    4.8024 C.ar      1 <0>        -0.1370
     12 C10        -0.2088    1.4905    4.8363 C.ar      1 <0>        -0.0707
     13 C11        -0.2893    2.2027    5.9869 C.ar      1 <0>        -0.0806
     14 C12        -0.6728    1.5855    7.2037 C.ar      1 <0>         0.1506
     15 C13        -0.9622    0.2002    7.1438 C.ar      1 <0>        -0.1747
     16 C14        -0.8875   -0.5211    5.9845 C.ar      1 <0>         0.0174
     17 S1         -1.3874   -0.1711    8.8286 S.3       1 <0>         0.0053
     18 C15        -1.1627    1.4764    9.4842 C.2       1 <0>         0.4050
     19 N2         -0.7971    2.1548    8.4183 N.2       1 <0>        -0.5149
     20 N3         -1.3308    1.9232   10.7791 N.pl3     1 <0>        -0.5923
     21 C16        -1.2091    3.2793   11.0689 C.ar      1 <0>         0.4122
     22 C17        -1.4905    3.7365   12.3506 C.ar      1 <0>        -0.2635
     23 C18        -1.3667    5.0877   12.6299 C.ar      1 <0>        -0.0032
     24 C19        -0.9642    5.9403   11.6149 C.ar      1 <0>        -0.2695
     25 C20        -0.6983    5.4179   10.3546 C.ar      1 <0>         0.4379
     26 N4         -0.8211    4.1197   10.1213 N.ar      1 <0>        -0.5335
     27 N5         -0.2943    6.2657    9.3299 N.pl3     1 <0>        -0.7150
     28 C21        -0.1508    7.7019    9.5811 C.3       1 <0>         0.1287
     29 C22         0.3016    8.4013    8.2977 C.3       1 <0>         0.0637
     30 O2         -0.7236    8.2912    7.3083 O.3       1 <0>        -0.5697
     31 Cl1         1.4154   -2.6075    2.4308 Cl        1 <0>        -0.0445
     32 H1         -0.7238    1.9785   -0.0332 H         1 <0>         0.0754
     33 H2         -2.2701    1.2044   -0.4552 H         1 <0>         0.0747
     34 H3         -1.7628    1.3091    1.2477 H         1 <0>         0.0686
     35 H4         -1.2465   -0.4058   -1.9586 H         1 <0>         0.1333
     36 H5         -0.1042   -2.5749   -2.1687 H         1 <0>         0.1346
     37 H6          1.0692   -3.5461   -0.2353 H         1 <0>         0.1364
     38 H7          0.2539    0.9192    2.4365 H         1 <0>         0.4108
     39 H8          0.0865    1.9902    3.9256 H         1 <0>         0.1321
     40 H9         -0.0570    3.2574    5.9762 H         1 <0>         0.1380
     41 H10        -1.1211   -1.5756    5.9822 H         1 <0>         0.1455
     42 H11        -1.5337    1.2922   11.4874 H         1 <0>         0.4407
     43 H12        -1.8026    3.0461   13.1203 H         1 <0>         0.1340
     44 H13        -1.5798    5.4684   13.6179 H         1 <0>         0.1386
     45 H14        -0.8586    6.9989   11.8006 H         1 <0>         0.1315
     46 H15        -0.1074    5.9065    8.4485 H         1 <0>         0.4092
     47 H16        -1.1088    8.1124    9.9002 H         1 <0>         0.0723
     48 H17         0.5916    7.8616   10.3630 H         1 <0>         0.0788
     49 H18         0.4940    9.4538    8.5060 H         1 <0>         0.0657
     50 H19         1.2136    7.9312    7.9298 H         1 <0>         0.0546
     51 H20        -0.5046    8.7133    6.4664 H         1 <0>         0.3838
@<TRIPOS>BOND
     1    1    2 1
     2    1   32 1
     3    1   33 1
     4    1   34 1
     5    2    7 ar
     6    2    3 ar
     7    3    4 ar
     8    3   35 1
     9    4    5 ar
    10    4   36 1
    11    5    6 ar
    12    5   37 1
    13    6    7 ar
    14    6   31 1
    15    7    8 1
    16    8    9 am
    17    8   38 1
    18    9   10 2
    19    9   11 1
    20   11   16 ar
    21   11   12 ar
    22   12   13 ar
    23   12   39 1
    24   13   14 ar
    25   13   40 1
    26   14   19 1
    27   14   15 ar
    28   15   16 ar
    29   15   17 1
    30   16   41 1
    31   17   18 1
    32   18   19 2
    33   18   20 1
    34   20   21 1
    35   20   42 1
    36   21   26 ar
    37   21   22 ar
    38   22   23 ar
    39   22   43 1
    40   23   24 ar
    41   23   44 1
    42   24   25 ar
    43   24   45 1
    44   25   26 ar
    45   25   27 1
    46   27   28 1
    47   27   46 1
    48   28   29 1
    49   28   47 1
    50   28   48 1
    51   29   30 1
    52   29   49 1
    53   29   50 1
    54   30   51 1
@<TRIPOS>MOLECULE
CHEMBL374517
   54    58     0     0     0
SMALL
USER_CHARGES

@<TRIPOS>ATOM
      1 C1         -2.4358   -1.1039    1.4977 C.3       1 <0>        -0.1150
      2 C2         -1.1567   -1.2537    0.7151 C.ar      1 <0>        -0.0856
      3 C3         -1.1591   -1.9324   -0.4883 C.ar      1 <0>        -0.0954
      4 C4          0.0119   -2.0711   -1.2086 C.ar      1 <0>        -0.1333
      5 C5          1.1948   -1.5288   -0.7253 C.ar      1 <0>         0.1106
      6 C6          1.2015   -0.8473    0.4813 C.ar      1 <0>        -0.1378
      7 C7          0.0230   -0.7043    1.2012 C.ar      1 <0>         0.1523
      8 N1          0.0246   -0.0130    2.4161 N.pl3     1 <0>        -0.6605
      9 C8         -0.0593   -0.7115    3.6118 C.ar      1 <0>         0.4957
     10 C9         -0.0351   -2.1032    3.6189 C.ar      1 <0>        -0.3587
     11 C10        -0.1215   -2.7603    4.8426 C.ar      1 <0>         0.5155
     12 N2         -0.2237   -2.0409    5.9581 N.ar      1 <0>        -0.5848
     13 C11        -0.2435   -0.7188    5.9126 C.ar      1 <0>         0.6178
     14 N3         -0.1584   -0.0598    4.7682 N.ar      1 <0>        -0.6138
     15 N4         -0.3520   -0.0014    7.1010 N.pl3     1 <0>        -0.4270
     16 C12        -0.4379   -0.5253    8.3581 C.2       1 <0>         0.3017
     17 N5         -0.5275    0.4310    9.2346 N.2       1 <0>        -0.4823
     18 C13        -0.5055    1.6345    8.6046 C.ar      1 <0>         0.0475
     19 C14        -0.3867    1.3762    7.2286 C.ar      1 <0>         0.0603
     20 C15        -0.3330    2.4297    6.3281 C.ar      1 <0>        -0.0873
     21 C16        -0.3932    3.7287    6.7875 C.ar      1 <0>        -0.1081
     22 C17        -0.5072    3.9894    8.1453 C.ar      1 <0>        -0.1202
     23 C18        -0.5700    2.9561    9.0527 C.ar      1 <0>        -0.0689
     24 N6         -0.1019   -4.1453    4.8992 N.pl3     1 <0>        -0.5582
     25 N7         -0.1873   -4.7808    6.1054 N.3       1 <0>        -0.2833
     26 C19         1.0373   -5.5440    6.3866 C.3       1 <0>         0.0003
     27 C20         0.9234   -6.1897    7.7700 C.3       1 <0>         0.0682
     28 O1         -0.2475   -7.0098    7.8128 O.3       1 <0>        -0.3822
     29 C21        -1.4587   -6.2985    7.5441 C.3       1 <0>         0.0681
     30 C22        -1.3689   -5.6539    6.1584 C.3       1 <0>         0.0010
     31 O2          2.3456   -1.6665   -1.4347 O.3       1 <0>        -0.4965
     32 H1         -2.9466   -0.1922    1.1880 H         1 <0>         0.0748
     33 H2         -3.0797   -1.9630    1.3094 H         1 <0>         0.0700
     34 H3         -2.2062   -1.0483    2.5618 H         1 <0>         0.0657
     35 H4         -2.0779   -2.3556   -0.8666 H         1 <0>         0.1343
     36 H5          0.0069   -2.6025   -2.1489 H         1 <0>         0.1342
     37 H6          2.1209   -0.4250    0.8590 H         1 <0>         0.1345
     38 H7          0.0844    0.9552    2.4232 H         1 <0>         0.4188
     39 H8          0.0483   -2.6596    2.6970 H         1 <0>         0.1429
     40 H9         -0.4327   -1.5799    8.5910 H         1 <0>         0.2246
     41 H10        -0.2439    2.2333    5.2699 H         1 <0>         0.1392
     42 H11        -0.3509    4.5484    6.0856 H         1 <0>         0.1313
     43 H12        -0.5530    5.0110    8.4927 H         1 <0>         0.1317
     44 H13        -0.6571    3.1666   10.1084 H         1 <0>         0.1326
     45 H14        -0.0276   -4.6631    4.0824 H         1 <0>         0.3987
     46 H15         1.1638   -6.3203    5.6319 H         1 <0>         0.0501
     47 H16         1.8965   -4.8735    6.3675 H         1 <0>         0.0929
     48 H17         1.8044   -6.8030    7.9591 H         1 <0>         0.1052
     49 H18         0.8508   -5.4117    8.5300 H         1 <0>         0.0677
     50 H19        -2.3005   -6.9905    7.5698 H         1 <0>         0.1053
     51 H20        -1.6006   -5.5237    8.2975 H         1 <0>         0.0676
     52 H21        -2.2663   -5.0636    5.9727 H         1 <0>         0.0933
     53 H22        -1.2809   -6.4319    5.4000 H         1 <0>         0.0502
     54 H23         2.5066   -0.9516   -2.0657 H         1 <0>         0.3940
@<TRIPOS>BOND
     1    1    2 1
     2    1   32 1
     3    1   33 1
     4    1   34 1
     5    2    7 ar
     6    2    3 ar
     7    3    4 ar
     8    3   35 1
     9    4    5 ar
    10    4   36 1
    11    5    6 ar
    12    5   31 1
    13    6    7 ar
    14    6   37 1
    15    7    8 1
    16    8    9 1
    17    8   38 1
    18    9   14 ar
    19    9   10 ar
    20   10   11 ar
    21   10   39 1
    22   11   12 ar
    23   11   24 1
    24   12   13 ar
    25   13   14 ar
    26   13   15 1
    27   15   19 1
    28   15   16 1
    29   16   17 2
    30   16   40 1
    31   17   18 1
    32   18   23 ar
    33   18   19 ar
    34   19   20 ar
    35   20   21 ar
    36   20   41 1
    37   21   22 ar
    38   21   42 1
    39   22   23 ar
    40   22   43 1
    41   23   44 1
    42   24   25 1
    43   24   45 1
    44   25   30 1
    45   25   26 1
    46   26   27 1
    47   26   46 1
    48   26   47 1
    49   27   28 1
    50   27   48 1
    51   27   49 1
    52   28   29 1
    53   29   30 1
    54   29   50 1
    55   29   51 1
    56   30   52 1
    57   30   53 1
    58   31   54 1
@<TRIPOS>MOLECULE
CHEMBL220600
   59    63     0     0     0
SMALL
USER_CHARGES

@<TRIPOS>ATOM
      1 C1         -2.4358   -1.1039    1.4977 C.3       1 <0>        -0.1145
      2 C2         -1.1567   -1.2537    0.7151 C.ar      1 <0>        -0.0866
      3 C3         -1.1591   -1.9324   -0.4883 C.ar      1 <0>        -0.0947
      4 C4          0.0119   -2.0711   -1.2086 C.ar      1 <0>        -0.1308
      5 C5          1.1948   -1.5288   -0.7253 C.ar      1 <0>         0.1136
      6 C6          1.2015   -0.8473    0.4813 C.ar      1 <0>        -0.1371
      7 C7          0.0230   -0.7043    1.2012 C.ar      1 <0>         0.1453
      8 N1          0.0246   -0.0130    2.4161 N.pl3     1 <0>        -0.6545
      9 C8         -0.0593   -0.7115    3.6118 C.ar      1 <0>         0.5010
     10 C9         -0.0351   -2.1032    3.6189 C.ar      1 <0>        -0.3521
     11 C10        -0.1215   -2.7603    4.8426 C.ar      1 <0>         0.5061
     12 N2         -0.2237   -2.0409    5.9581 N.ar      1 <0>        -0.5915
     13 C11        -0.2435   -0.7188    5.9126 C.ar      1 <0>         0.6233
     14 N3         -0.1584   -0.0598    4.7682 N.ar      1 <0>        -0.6067
     15 N4         -0.3520   -0.0014    7.1010 N.pl3     1 <0>        -0.4285
     16 C12        -0.4379   -0.5253    8.3581 C.2       1 <0>         0.2912
     17 N5         -0.5275    0.4310    9.2346 N.2       1 <0>        -0.4758
     18 C13        -0.5055    1.6345    8.6046 C.ar      1 <0>         0.0456
     19 C14        -0.3867    1.3762    7.2286 C.ar      1 <0>         0.0608
     20 C15        -0.3330    2.4297    6.3281 C.ar      1 <0>        -0.0900
     21 C16        -0.3932    3.7287    6.7875 C.ar      1 <0>        -0.1008
     22 C17        -0.5072    3.9894    8.1453 C.ar      1 <0>        -0.1164
     23 C18        -0.5700    2.9561    9.0527 C.ar      1 <0>        -0.0661
     24 N6         -0.1019   -4.1453    4.8992 N.pl3     1 <0>        -0.5611
     25 N7         -0.1873   -4.7808    6.1054 N.3       1 <0>        -0.2830
     26 C19         1.0376   -5.5426    6.3872 C.3       1 <0>         0.0074
     27 C20         0.9259   -6.1891    7.7697 C.3       1 <0>         0.0023
     28 N8         -0.2425   -7.0785    7.8015 N.4       1 <0>        -0.3901
     29 C21        -1.4604   -6.2992    7.5427 C.3       1 <0>         0.0024
     30 C22        -1.3686   -5.6537    6.1583 C.3       1 <0>         0.0082
     31 C23        -0.3390   -7.7127    9.1230 C.3       1 <0>        -0.0462
     32 O1          2.3456   -1.6665   -1.4347 O.3       1 <0>        -0.4969
     33 H1         -2.9466   -0.1922    1.1880 H         1 <0>         0.0769
     34 H2         -3.0797   -1.9630    1.3094 H         1 <0>         0.0702
     35 H3         -2.2062   -1.0483    2.5618 H         1 <0>         0.0627
     36 H4         -2.0779   -2.3556   -0.8666 H         1 <0>         0.1355
     37 H5          0.0069   -2.6025   -2.1489 H         1 <0>         0.1362
     38 H6          2.1209   -0.4250    0.8590 H         1 <0>         0.1353
     39 H7          0.0844    0.9552    2.4232 H         1 <0>         0.4217
     40 H8          0.0483   -2.6596    2.6970 H         1 <0>         0.1459
     41 H9         -0.4327   -1.5799    8.5910 H         1 <0>         0.2201
     42 H10        -0.2439    2.2333    5.2699 H         1 <0>         0.1395
     43 H11        -0.3509    4.5484    6.0856 H         1 <0>         0.1346
     44 H12        -0.5530    5.0110    8.4927 H         1 <0>         0.1353
     45 H13        -0.6571    3.1666   10.1084 H         1 <0>         0.1349
     46 H14        -0.0276   -4.6631    4.0824 H         1 <0>         0.4084
     47 H15         1.1653   -6.3183    5.6322 H         1 <0>         0.0661
     48 H16         1.8960   -4.8711    6.3680 H         1 <0>         0.1288
     49 H17         1.8276   -6.7662    7.9748 H         1 <0>         0.1416
     50 H18         0.8120   -5.4123    8.5258 H         1 <0>         0.1439
     51 H19        -2.3280   -6.9581    7.5795 H         1 <0>         0.1417
     52 H20        -1.5622   -5.5219    8.3000 H         1 <0>         0.1439
     53 H21        -2.2657   -5.0632    5.9722 H         1 <0>         0.1292
     54 H22        -1.2806   -6.4312    5.3996 H         1 <0>         0.0664
     55 H23        -0.4466   -6.9438    9.8881 H         1 <0>         0.1258
     56 H24        -1.2060   -8.3728    9.1469 H         1 <0>         0.1256
     57 H25         0.5642   -8.2921    9.3147 H         1 <0>         0.1256
     58 H26         2.5066   -0.9516   -2.0657 H         1 <0>         0.3975
     59 H27        -0.1424   -7.7906    7.0937 H         1 <0>         0.4227
@<TRIPOS>BOND
     1    1    2 1
     2    1   33 1
     3    1   34 1
     4    1   35 1
     5    2    7 ar
     6    2    3 ar
     7    3    4 ar
     8    3   36 1
     9    4    5 ar
    10    4   37 1
    11    5    6 ar
    12    5   32 1
    13    6    7 ar
    14    6   38 1
    15    7    8 1
    16    8    9 1
    17    8   39 1
    18    9   14 ar
    19    9   10 ar
    20   10   11 ar
    21   10   40 1
    22   11   12 ar
    23   11   24 1
    24   12   13 ar
    25   13   14 ar
    26   13   15 1
    27   15   19 1
    28   15   16 1
    29   16   17 2
    30   16   41 1
    31   17   18 1
    32   18   23 ar
    33   18   19 ar
    34   19   20 ar
    35   20   21 ar
    36   20   42 1
    37   21   22 ar
    38   21   43 1
    39   22   23 ar
    40   22   44 1
    41   23   45 1
    42   24   25 1
    43   24   46 1
    44   25   30 1
    45   25   26 1
    46   26   27 1
    47   26   47 1
    48   26   48 1
    49   27   28 1
    50   27   49 1
    51   27   50 1
    52   28   29 1
    53   28   31 1
    54   28   59 1
    55   29   30 1
    56   29   51 1
    57   29   52 1
    58   30   53 1
    59   30   54 1
    60   31   55 1
    61   31   56 1
    62   31   57 1
    63   32   58 1
@<TRIPOS>MOLECULE
CHEMBL1088796
   50    54     0     0     0
SMALL
USER_CHARGES

@<TRIPOS>ATOM
      1 C1          0.7728    0.7891    0.1692 C.3       1 <0>        -0.1270
      2 C2          0.7318   -0.7083    0.3341 C.ar      1 <0>        -0.0380
      3 C3          0.8674   -1.5271   -0.7704 C.ar      1 <0>        -0.1243
      4 C4          0.8310   -2.8994   -0.6279 C.ar      1 <0>        -0.0745
      5 C5          0.6566   -3.4681    0.6357 C.ar      1 <0>        -0.1393
      6 C6          0.5199   -2.6463    1.7528 C.ar      1 <0>        -0.0363
      7 C7          0.5630   -1.2640    1.6018 C.ar      1 <0>        -0.0668
      8 C8          0.4233   -0.3823    2.7869 C.ar      1 <0>        -0.0215
      9 C9          1.3482    0.6528    2.9961 C.ar      1 <0>        -0.0812
     10 C10         1.2444    1.4766    4.0744 C.ar      1 <0>        -0.0928
     11 C11         0.2025    1.2931    4.9904 C.ar      1 <0>        -0.0625
     12 C12        -0.7398    0.2494    4.7899 C.ar      1 <0>        -0.0752
     13 C13        -0.6210   -0.5848    3.6724 C.ar      1 <0>        -0.0735
     14 C14        -1.7697    0.1047    5.7375 C.ar      1 <0>         0.0882
     15 N1         -1.8204    0.9303    6.7595 N.ar      1 <0>        -0.2571
     16 N2         -0.9754    1.8741    6.9484 N.ar      1 <0>        -0.2435
     17 C15         0.0379    2.1146    6.1310 C.ar      1 <0>         0.1478
     18 C16         0.9815    3.2217    6.4053 C.ar      1 <0>        -0.0826
     19 C17         1.2825    4.1492    5.4076 C.ar      1 <0>        -0.0707
     20 C18         2.1621    5.1790    5.6692 C.ar      1 <0>        -0.1304
     21 C19         2.7472    5.2943    6.9182 C.ar      1 <0>        -0.0741
     22 C20         2.4550    4.3794    7.9126 C.ar      1 <0>        -0.1548
     23 C21         1.5702    3.3458    7.6660 C.ar      1 <0>         0.1385
     24 F1          1.2802    2.4554    8.6398 F         1 <0>        -0.1245
     25 C22         0.6167   -4.9384    0.7877 C.2       1 <0>         0.5640
     26 O1          0.4648   -5.4317    1.8882 O.2       1 <0>        -0.5305
     27 N3          0.7486   -5.7315   -0.2939 N.am      1 <0>        -0.6986
     28 C23         0.7090   -7.1882   -0.1433 C.3       1 <0>         0.0766
     29 C24         1.7445   -8.0068   -0.9170 C.3       1 <0>        -0.1916
     30 C25         0.2796   -8.0127   -1.3585 C.3       1 <0>        -0.1874
     31 H1          1.8021    1.1365    0.2592 H         1 <0>         0.0799
     32 H2          0.3835    1.0573   -0.8130 H         1 <0>         0.0742
     33 H3          0.1626    1.2566    0.9420 H         1 <0>         0.0738
     34 H4          1.0021   -1.0915   -1.7494 H         1 <0>         0.1352
     35 H5          0.9371   -3.5345   -1.4950 H         1 <0>         0.1280
     36 H6          0.3845   -3.0808    2.7323 H         1 <0>         0.1408
     37 H7          2.1538    0.7972    2.2915 H         1 <0>         0.1383
     38 H8          1.9635    2.2686    4.2228 H         1 <0>         0.1441
     39 H9         -1.3329   -1.3795    3.5054 H         1 <0>         0.1451
     40 H10        -2.5094   -0.6744    5.6266 H         1 <0>         0.1808
     41 H11         0.8278    4.0609    4.4320 H         1 <0>         0.1365
     42 H12         2.3953    5.8972    4.8970 H         1 <0>         0.1375
     43 H13         3.4354    6.1026    7.1168 H         1 <0>         0.1386
     44 H14         2.9154    4.4746    8.8850 H         1 <0>         0.1428
     45 H15         0.8698   -5.3379   -1.1721 H         1 <0>         0.4013
     46 H16         0.4135   -7.5512    0.8411 H         1 <0>         0.1403
     47 H17         2.4552   -7.4616   -1.5380 H         1 <0>         0.0977
     48 H18         2.1305   -8.9086   -0.4416 H         1 <0>         0.1048
     49 H19        -0.2981   -8.9183   -1.1736 H         1 <0>         0.1061
     50 H20         0.0265   -7.4713   -2.2700 H         1 <0>         0.0981
@<TRIPOS>BOND
     1    1    2 1
     2    1   31 1
     3    1   32 1
     4    1   33 1
     5    2    7 ar
     6    2    3 ar
     7    3    4 ar
     8    3   34 1
     9    4    5 ar
    10    4   35 1
    11    5    6 ar
    12    5   25 1
    13    6    7 ar
    14    6   36 1
    15    7    8 1
    16    8   13 ar
    17    8    9 ar
    18    9   10 ar
    19    9   37 1
    20   10   11 ar
    21   10   38 1
    22   11   17 ar
    23   11   12 ar
    24   12   13 ar
    25   12   14 ar
    26   13   39 1
    27   14   15 ar
    28   14   40 1
    29   15   16 ar
    30   16   17 ar
    31   17   18 1
    32   18   23 ar
    33   18   19 ar
    34   19   20 ar
    35   19   41 1
    36   20   21 ar
    37   20   42 1
    38   21   22 ar
    39   21   43 1
    40   22   23 ar
    41   22   44 1
    42   23   24 1
    43   25   26 2
    44   25   27 am
    45   27   28 1
    46   27   45 1
    47   28   30 1
    48   28   29 1
    49   28   46 1
    50   29   30 1
    51   29   47 1
    52   29   48 1
    53   30   49 1
    54   30   50 1
@<TRIPOS>MOLECULE
CHEMBL570573
   61    66     0     0     0
SMALL
USER_CHARGES

@<TRIPOS>ATOM
      1 C1         -2.0636    0.3288    0.7602 C.3       1 <0>        -0.1131
      2 C2         -0.8610   -0.3581    0.1661 C.ar      1 <0>        -0.0387
      3 C3         -0.9107   -0.8200   -1.1454 C.ar      1 <0>        -0.1145
      4 C4          0.1590   -1.4460   -1.7132 C.ar      1 <0>        -0.0833
      5 C5          1.3331   -1.6313   -0.9710 C.ar      1 <0>        -0.1314
      6 C6          1.3960   -1.1649    0.3652 C.ar      1 <0>         0.0169
      7 C7          0.2792   -0.5169    0.9270 C.ar      1 <0>         0.1434
      8 N1          0.3232   -0.0453    2.2394 N.pl3     1 <0>        -0.6505
      9 C8          0.4622    1.3128    2.4840 C.ar      1 <0>         0.4463
     10 C9          0.6775    1.7668    3.7938 C.ar      1 <0>        -0.1840
     11 C10         0.8150    3.1377    4.0171 C.ar      1 <0>        -0.0026
     12 C11         0.7325    3.9937    2.9307 C.ar      1 <0>        -0.2381
     13 C12         0.5185    3.4721    1.6688 C.ar      1 <0>         0.1723
     14 N2          0.3963    2.1722    1.4795 N.ar      1 <0>        -0.5356
     15 C13         0.7570    0.8081    4.9203 C.ar      1 <0>         0.2708
     16 C14         1.1276    1.2402    6.1927 C.ar      1 <0>        -0.2894
     17 C15         1.1868    0.2977    7.2171 C.ar      1 <0>         0.4457
     18 N3          0.8898   -0.9710    6.9456 N.ar      1 <0>        -0.5833
     19 C16         0.5435   -1.3404    5.7290 C.ar      1 <0>         0.3572
     20 N4          0.4696   -0.4815    4.7340 N.ar      1 <0>        -0.5813
     21 N5          1.5503    0.6757    8.5001 N.pl3     1 <0>        -0.7140
     22 C17         1.8757    2.0750    8.7870 C.3       1 <0>         0.0888
     23 C18         2.5875   -1.3640    1.0867 C.ar      1 <0>        -0.2005
     24 C19         3.6283   -1.9940    0.4759 C.ar      1 <0>         0.1270
     25 N6          3.5511   -2.4240   -0.7765 N.ar      1 <0>        -0.5428
     26 C20         2.4680   -2.2733   -1.5149 C.ar      1 <0>         0.4271
     27 N7          2.4437   -2.7432   -2.8181 N.pl3     1 <0>        -0.6523
     28 C21         3.5294   -3.4698   -3.3205 C.ar      1 <0>         0.1827
     29 C22         4.2578   -4.2921   -2.4619 C.ar      1 <0>        -0.0894
     30 C23         5.3294   -5.0100   -2.9552 C.ar      1 <0>        -0.0449
     31 C24         5.6627   -4.9039   -4.2840 C.ar      1 <0>        -0.1825
     32 C25         4.9475   -4.0809   -5.1828 C.ar      1 <0>         0.1051
     33 C26         3.8543   -3.3629   -4.6548 C.ar      1 <0>        -0.1051
     34 N8          5.4315   -4.1149   -6.4417 N.2       1 <0>        -0.5187
     35 C27         6.4586   -4.8434   -6.7700 C.2       1 <0>         0.1047
     36 S1          6.9075   -5.6034   -5.3370 S.3       1 <0>         0.0786
     37 C28         7.1005   -4.9770   -8.1269 C.3       1 <0>        -0.0716
     38 H1         -1.9576    1.4079    0.6487 H         1 <0>         0.0788
     39 H2         -2.9639   -0.0032    0.2432 H         1 <0>         0.0661
     40 H3         -2.1391    0.0785    1.8184 H         1 <0>         0.0653
     41 H4         -1.8123   -0.6807   -1.7233 H         1 <0>         0.1300
     42 H5          0.1015   -1.7985   -2.7325 H         1 <0>         0.1252
     43 H6          0.2565   -0.6673    2.9807 H         1 <0>         0.4345
     44 H7          0.9813    3.5220    5.0126 H         1 <0>         0.1365
     45 H8          0.8342    5.0600    3.0689 H         1 <0>         0.1379
     46 H9          0.4539    4.1399    0.8225 H         1 <0>         0.1590
     47 H10         1.3628    2.2776    6.3794 H         1 <0>         0.1432
     48 H11         0.3092   -2.3783    5.5435 H         1 <0>         0.1991
     49 H12         1.5893    0.0137    9.2080 H         1 <0>         0.4115
     50 H13         2.7204    2.3852    8.1719 H         1 <0>         0.0614
     51 H14         1.0129    2.7021    8.5622 H         1 <0>         0.0612
     52 H15         2.1358    2.1790    9.8404 H         1 <0>         0.0856
     53 H16         2.6749   -1.0226    2.1076 H         1 <0>         0.1300
     54 H17         4.5441   -2.1478    1.0272 H         1 <0>         0.1532
     55 H18         1.6742   -2.5687   -3.3823 H         1 <0>         0.4196
     56 H19         3.9862   -4.3668   -1.4193 H         1 <0>         0.1534
     57 H20         5.9021   -5.6503   -2.3007 H         1 <0>         0.1370
     58 H21         3.2711   -2.7222   -5.2996 H         1 <0>         0.1339
     59 H22         7.8817   -4.2246   -8.2349 H         1 <0>         0.0940
     60 H23         7.5369   -5.9708   -8.2261 H         1 <0>         0.0899
     61 H24         6.3470   -4.8321   -8.9011 H         1 <0>         0.0948
@<TRIPOS>BOND
     1    1    2 1
     2    1   38 1
     3    1   39 1
     4    1   40 1
     5    2    7 ar
     6    2    3 ar
     7    3    4 ar
     8    3   41 1
     9    4    5 ar
    10    4   42 1
    11    5   26 ar
    12    5    6 ar
    13    6    7 ar
    14    6   23 ar
    15    7    8 1
    16    8    9 1
    17    8   43 1
    18    9   14 ar
    19    9   10 ar
    20   10   11 ar
    21   10   15 1
    22   11   12 ar
    23   11   44 1
    24   12   13 ar
    25   12   45 1
    26   13   14 ar
    27   13   46 1
    28   15   20 ar
    29   15   16 ar
    30   16   17 ar
    31   16   47 1
    32   17   18 ar
    33   17   21 1
    34   18   19 ar
    35   19   20 ar
    36   19   48 1
    37   21   22 1
    38   21   49 1
    39   22   50 1
    40   22   51 1
    41   22   52 1
    42   23   24 ar
    43   23   53 1
    44   24   25 ar
    45   24   54 1
    46   25   26 ar
    47   26   27 1
    48   27   28 1
    49   27   55 1
    50   28   33 ar
    51   28   29 ar
    52   29   30 ar
    53   29   56 1
    54   30   31 ar
    55   30   57 1
    56   31   36 1
    57   31   32 ar
    58   32   33 ar
    59   32   34 1
    60   33   58 1
    61   34   35 2
    62   35   36 1
    63   35   37 1
    64   37   59 1
    65   37   60 1
    66   37   61 1
@<TRIPOS>MOLECULE
CHEMBL570573__1
   62    67     0     0     0
SMALL
USER_CHARGES

@<TRIPOS>ATOM
      1 C1         -2.1610   -0.6351    0.8818 C.3       1 <0>        -0.1281
      2 C2         -0.9426   -1.3728    0.3895 C.ar      1 <0>         0.0022
      3 C3         -0.7937   -1.6243   -0.9707 C.ar      1 <0>        -0.0866
      4 C4          0.2958   -2.2894   -1.4494 C.ar      1 <0>        -0.0698
      5 C5          1.2881   -2.7305   -0.5636 C.ar      1 <0>        -0.1227
      6 C6          1.1479   -2.4800    0.8236 C.ar      1 <0>         0.0253
      7 C7          0.0156   -1.7864    1.2923 C.ar      1 <0>         0.1637
      8 N1         -0.1382   -1.5249    2.6541 N.pl3     1 <0>        -0.6632
      9 C8          0.0909   -0.2482    3.1453 C.ar      1 <0>         0.4338
     10 C9          0.0709   -0.0196    4.5293 C.ar      1 <0>        -0.1685
     11 C10         0.3045    1.2728    5.0018 C.ar      1 <0>        -0.0032
     12 C11         0.5470    2.2777    4.0791 C.ar      1 <0>        -0.2222
     13 C12         0.5509    1.9759    2.7304 C.ar      1 <0>         0.1687
     14 N2          0.3326    0.7460    2.3057 N.ar      1 <0>        -0.5402
     15 C13        -0.1941   -1.1305    5.4728 C.ar      1 <0>         0.2634
     16 C14        -0.0540   -0.9409    6.8467 C.ar      1 <0>        -0.2853
     17 C15        -0.3154   -2.0184    7.6904 C.ar      1 <0>         0.4494
     18 N3         -0.6865   -3.1805    7.1580 N.ar      1 <0>        -0.5792
     19 C16        -0.8077   -3.3201    5.8533 C.ar      1 <0>         0.3576
     20 N4         -0.5759   -2.3266    5.0212 N.ar      1 <0>        -0.5890
     21 N5         -0.1904   -1.8823    9.0641 N.pl3     1 <0>        -0.7093
     22 C17         0.2191   -0.5984    9.6387 C.3       1 <0>         0.0859
     23 C18         2.1596   -2.9338    1.6899 C.ar      1 <0>        -0.1115
     24 C19         3.2285   -3.5927    1.1640 C.ar      1 <0>         0.0767
     25 N6          3.3428   -3.8183   -0.1381 N.ar      1 <0>        -0.5127
     26 C20         2.4354   -3.4232   -1.0109 C.ar      1 <0>         0.5001
     27 N7          2.6068   -3.6870   -2.3602 N.pl3     1 <0>        -0.6257
     28 C21         3.6801   -4.4770   -2.7881 C.ar      1 <0>         0.1096
     29 C22         4.0063   -5.6306   -2.0763 C.ar      1 <0>        -0.1663
     30 C23         5.0649   -6.4117   -2.4964 C.ar      1 <0>        -0.0065
     31 C24         5.7812   -6.0414   -3.6090 C.ar      1 <0>        -0.1892
     32 C25         5.4793   -4.8796   -4.3544 C.ar      1 <0>         0.1268
     33 C26         4.3902   -4.1026   -3.9074 C.ar      1 <0>        -0.0606
     34 N8          6.2987   -4.6919   -5.4097 N.2       1 <0>        -0.5258
     35 C27         7.2656   -5.5158   -5.6916 C.2       1 <0>         0.1317
     36 S1          7.1689   -6.6983   -4.4980 S.3       1 <0>         0.1387
     37 C28         8.2491   -5.4309   -6.8303 C.3       1 <0>        -0.0823
     38 H1         -1.9426    0.4314    0.9364 H         1 <0>         0.0929
     39 H2         -2.9894   -0.8015    0.1932 H         1 <0>         0.0798
     40 H3         -2.4323   -1.0015    1.8719 H         1 <0>         0.0782
     41 H4         -1.5545   -1.2873   -1.6592 H         1 <0>         0.1520
     42 H5          0.3938   -2.4761   -2.5086 H         1 <0>         0.1426
     43 H6         -0.4054   -2.2359    3.2574 H         1 <0>         0.4391
     44 H7          0.2960    1.4845    6.0608 H         1 <0>         0.1416
     45 H8          0.7311    3.2887    4.4112 H         1 <0>         0.1434
     46 H9          0.7396    2.7597    2.0118 H         1 <0>         0.1633
     47 H10         0.2493    0.0154    7.2464 H         1 <0>         0.1453
     48 H11        -1.1104   -4.2772    5.4548 H         1 <0>         0.1997
     49 H12        -0.3742   -2.6371    9.6449 H         1 <0>         0.4141
     50 H13         0.2618   -0.6834   10.7245 H         1 <0>         0.0892
     51 H14         1.2031   -0.3267    9.2566 H         1 <0>         0.0630
     52 H15        -0.5028    0.1701    9.3625 H         1 <0>         0.0635
     53 H16         2.0895   -2.7620    2.7538 H         1 <0>         0.1713
     54 H17         4.0066   -3.9418    1.8265 H         1 <0>         0.1988
     55 H18         1.9830   -3.3241   -3.0084 H         1 <0>         0.4445
     56 H19         3.4359   -5.9109   -1.2031 H         1 <0>         0.1430
     57 H20         5.3282   -7.3076   -1.9538 H         1 <0>         0.1535
     58 H21         4.1142   -3.2066   -4.4434 H         1 <0>         0.1502
     59 H22         9.1244   -4.8641   -6.5128 H         1 <0>         0.1042
     60 H23         8.5535   -6.4357   -7.1232 H         1 <0>         0.0986
     61 H24         7.7808   -4.9314   -7.6784 H         1 <0>         0.1036
     62 H25         4.1246   -4.2926   -0.4616 H         1 <0>         0.4390
@<TRIPOS>BOND
     1    1    2 1
     2    1   38 1
     3    1   39 1
     4    1   40 1
     5    2    7 ar
     6    2    3 ar
     7    3    4 ar
     8    3   41 1
     9    4    5 ar
    10    4   42 1
    11    5   26 ar
    12    5    6 ar
    13    6    7 ar
    14    6   23 ar
    15    7    8 1
    16    8    9 1
    17    8   43 1
    18    9   14 ar
    19    9   10 ar
    20   10   11 ar
    21   10   15 1
    22   11   12 ar
    23   11   44 1
    24   12   13 ar
    25   12   45 1
    26   13   14 ar
    27   13   46 1
    28   15   20 ar
    29   15   16 ar
    30   16   17 ar
    31   16   47 1
    32   17   18 ar
    33   17   21 1
    34   18   19 ar
    35   19   20 ar
    36   19   48 1
    37   21   22 1
    38   21   49 1
    39   22   50 1
    40   22   51 1
    41   22   52 1
    42   23   24 ar
    43   23   53 1
    44   24   25 ar
    45   24   54 1
    46   25   26 ar
    47   25   62 1
    48   26   27 1
    49   27   28 1
    50   27   55 1
    51   28   33 ar
    52   28   29 ar
    53   29   30 ar
    54   29   56 1
    55   30   31 ar
    56   30   57 1
    57   31   36 1
    58   31   32 ar
    59   32   33 ar
    60   32   34 1
    61   33   58 1
    62   34   35 2
    63   35   36 1
    64   35   37 1
    65   37   59 1
    66   37   60 1
    67   37   61 1
@<TRIPOS>MOLECULE
CHEMBL576787
   51    55     0     0     0
SMALL
USER_CHARGES

@<TRIPOS>ATOM
      1 C1         -0.8967    1.4192    0.0677 C.3       1 <0>        -0.1275
      2 C2         -0.6358   -0.0648    0.0438 C.ar      1 <0>        -0.0369
      3 C3         -0.6640   -0.7487   -1.1656 C.ar      1 <0>        -0.1239
      4 C4         -0.4324   -2.0916   -1.2235 C.ar      1 <0>        -0.0762
      5 C5         -0.1594   -2.8057   -0.0493 C.ar      1 <0>        -0.1396
      6 C6         -0.1264   -2.1241    1.1921 C.ar      1 <0>         0.0308
      7 C7         -0.3645   -0.7326    1.2272 C.ar      1 <0>        -0.0535
      8 C8         -0.3297    0.0023    2.5124 C.ar      1 <0>        -0.0658
      9 C9          0.8777    0.1067    3.2232 C.ar      1 <0>        -0.0507
     10 C10         0.9373    0.7749    4.4050 C.ar      1 <0>        -0.1184
     11 C11        -0.2191    1.3731    4.9307 C.ar      1 <0>         0.2166
     12 C12        -1.4442    1.2742    4.2206 C.ar      1 <0>        -0.2135
     13 C13        -1.4864    0.5862    3.0016 C.ar      1 <0>        -0.0389
     14 C14        -2.5880    1.8840    4.7710 C.ar      1 <0>         0.2429
     15 N1         -2.4706    2.5183    5.9186 N.ar      1 <0>        -0.5581
     16 C15        -1.3048    2.5914    6.5579 C.ar      1 <0>         0.5686
     17 N2         -0.2012    2.0401    6.0911 N.ar      1 <0>        -0.5736
     18 N3         -1.2488    3.2733    7.7600 N.pl3     1 <0>        -0.7007
     19 C16        -2.4570    3.8972    8.3052 C.3       1 <0>         0.1038
     20 C17         0.1503   -2.8651    2.3536 C.ar      1 <0>        -0.2090
     21 C18         0.3750   -4.2039    2.2421 C.ar      1 <0>         0.1329
     22 N4          0.3401   -4.8260    1.0717 N.ar      1 <0>        -0.5425
     23 C19         0.0871   -4.1971   -0.0608 C.ar      1 <0>         0.4269
     24 N5          0.0627   -4.8979   -1.2551 N.pl3     1 <0>        -0.6538
     25 C20         0.1877   -6.2904   -1.2512 C.ar      1 <0>         0.1675
     26 C21        -0.3925   -7.0382   -0.2346 C.ar      1 <0>        -0.0995
     27 C22        -0.2674   -8.4136   -0.2332 C.ar      1 <0>        -0.0897
     28 C23         0.4352   -9.0468   -1.2435 C.ar      1 <0>        -0.0533
     29 C24         1.0142   -8.3042   -2.2576 C.ar      1 <0>        -0.0891
     30 C25         0.8875   -6.9290   -2.2671 C.ar      1 <0>        -0.1390
     31 Cl1         0.5909  -10.7757   -1.2383 Cl        1 <0>        -0.0717
     32 H1          0.0441    1.9556   -0.0558 H         1 <0>         0.0770
     33 H2         -1.5742    1.6822   -0.7446 H         1 <0>         0.0720
     34 H3         -1.3487    1.6933    1.0210 H         1 <0>         0.0748
     35 H4         -0.8735   -0.2070   -2.0761 H         1 <0>         0.1306
     36 H5         -0.4597   -2.6042   -2.1737 H         1 <0>         0.1251
     37 H6          1.7712   -0.3510    2.8248 H         1 <0>         0.1324
     38 H7          1.8731    0.8455    4.9395 H         1 <0>         0.1393
     39 H8         -2.4121    0.5084    2.4507 H         1 <0>         0.1355
     40 H9         -3.5397    1.8328    4.2630 H         1 <0>         0.1779
     41 H10        -0.4096    3.3385    8.2420 H         1 <0>         0.4167
     42 H11        -2.8336    4.6377    7.5996 H         1 <0>         0.0603
     43 H12        -3.2171    3.1336    8.4708 H         1 <0>         0.0603
     44 H13        -2.2193    4.3843    9.2509 H         1 <0>         0.0774
     45 H14         0.1845   -2.3811    3.3185 H         1 <0>         0.1360
     46 H15         0.5882   -4.7756    3.1333 H         1 <0>         0.1554
     47 H16        -0.0410   -4.4226   -2.0943 H         1 <0>         0.4189
     48 H17        -0.9406   -6.5446    0.5543 H         1 <0>         0.1410
     49 H18        -0.7180   -8.9955    0.5572 H         1 <0>         0.1354
     50 H19         1.5623   -8.8009   -3.0445 H         1 <0>         0.1362
     51 H20         1.3355   -6.3504   -3.0613 H         1 <0>         0.1329
@<TRIPOS>BOND
     1    1    2 1
     2    1   32 1
     3    1   33 1
     4    1   34 1
     5    2    7 ar
     6    2    3 ar
     7    3    4 ar
     8    3   35 1
     9    4    5 ar
    10    4   36 1
    11    5   23 ar
    12    5    6 ar
    13    6    7 ar
    14    6   20 ar
    15    7    8 1
    16    8   13 ar
    17    8    9 ar
    18    9   10 ar
    19    9   37 1
    20   10   11 ar
    21   10   38 1
    22   11   17 ar
    23   11   12 ar
    24   12   13 ar
    25   12   14 ar
    26   13   39 1
    27   14   15 ar
    28   14   40 1
    29   15   16 ar
    30   16   17 ar
    31   16   18 1
    32   18   19 1
    33   18   41 1
    34   19   42 1
    35   19   43 1
    36   19   44 1
    37   20   21 ar
    38   20   45 1
    39   21   22 ar
    40   21   46 1
    41   22   23 ar
    42   23   24 1
    43   24   25 1
    44   24   47 1
    45   25   30 ar
    46   25   26 ar
    47   26   27 ar
    48   26   48 1
    49   27   28 ar
    50   27   49 1
    51   28   29 ar
    52   28   31 1
    53   29   30 ar
    54   29   50 1
    55   30   51 1
@<TRIPOS>MOLECULE
CHEMBL576787__1
   52    56     0     0     0
SMALL
USER_CHARGES

@<TRIPOS>ATOM
      1 C1         -1.4802    1.3608   -0.2426 C.3       1 <0>        -0.1415
      2 C2         -1.2052   -0.1205   -0.2053 C.ar      1 <0>         0.0044
      3 C3         -0.7130   -0.7574   -1.3380 C.ar      1 <0>        -0.0938
      4 C4         -0.4531   -2.0965   -1.3389 C.ar      1 <0>        -0.0656
      5 C5         -0.6820   -2.8543   -0.1829 C.ar      1 <0>        -0.1289
      6 C6         -1.1831   -2.2209    0.9808 C.ar      1 <0>         0.0406
      7 C7         -1.4404   -0.8325    0.9600 C.ar      1 <0>        -0.0306
      8 C8         -1.9592   -0.1474    2.1660 C.ar      1 <0>        -0.1047
      9 C9         -1.1611   -0.0667    3.3195 C.ar      1 <0>        -0.0583
     10 C10        -1.6131    0.5558    4.4398 C.ar      1 <0>        -0.1109
     11 C11        -2.8944    1.1298    4.4538 C.ar      1 <0>         0.2268
     12 C12        -3.7090    1.0545    3.2937 C.ar      1 <0>        -0.2225
     13 C13        -3.2254    0.4138    2.1463 C.ar      1 <0>        -0.0200
     14 C14        -4.9893    1.6392    3.3358 C.ar      1 <0>         0.2487
     15 N1         -5.3738    2.2293    4.4481 N.ar      1 <0>        -0.5530
     16 C15        -4.5832    2.2813    5.5182 C.ar      1 <0>         0.5784
     17 N2         -3.3753    1.7518    5.5371 N.ar      1 <0>        -0.5757
     18 N3         -5.0470    2.9167    6.6558 N.pl3     1 <0>        -0.6926
     19 C16        -6.3841    3.5155    6.6668 C.3       1 <0>         0.0991
     20 C17        -1.4029   -3.0051    2.1260 C.ar      1 <0>        -0.1172
     21 C18        -1.1270   -4.3379    2.0736 C.ar      1 <0>         0.0811
     22 N4         -0.6582   -4.9146    0.9756 N.ar      1 <0>        -0.5130
     23 C19        -0.4271   -4.2434   -0.1371 C.ar      1 <0>         0.4965
     24 N5          0.0627   -4.8979   -1.2551 N.pl3     1 <0>        -0.6252
     25 C20         0.1877   -6.2904   -1.2512 C.ar      1 <0>         0.0949
     26 C21        -0.8117   -7.0771   -0.6929 C.ar      1 <0>        -0.1554
     27 C22        -0.6856   -8.4524   -0.6904 C.ar      1 <0>        -0.0732
     28 C23         0.4351   -9.0468   -1.2434 C.ar      1 <0>        -0.0286
     29 C24         1.4323   -8.2654   -1.8004 C.ar      1 <0>        -0.0735
     30 C25         1.3088   -6.8899   -1.8108 C.ar      1 <0>        -0.0991
     31 Cl1         0.5906  -10.7758   -1.2380 Cl        1 <0>        -0.0325
     32 H1         -0.5840    1.9043    0.0565 H         1 <0>         0.0934
     33 H2         -1.7614    1.6527   -1.2545 H         1 <0>         0.0850
     34 H3         -2.2940    1.5966    0.4430 H         1 <0>         0.0856
     35 H4         -0.5333   -0.1818   -2.2340 H         1 <0>         0.1529
     36 H5         -0.0715   -2.5722   -2.2302 H         1 <0>         0.1424
     37 H6         -0.1745   -0.5060    3.3159 H         1 <0>         0.1325
     38 H7         -0.9875    0.6086    5.3185 H         1 <0>         0.1434
     39 H8         -3.8348    0.3544    1.2566 H         1 <0>         0.1380
     40 H9         -5.6408    1.6047    2.4751 H         1 <0>         0.1807
     41 H10        -4.4871    2.9659    7.4463 H         1 <0>         0.4196
     42 H11        -6.4455    4.2814    5.8937 H         1 <0>         0.0640
     43 H12        -7.1293    2.7438    6.4737 H         1 <0>         0.0636
     44 H13        -6.5722    3.9666    7.6410 H         1 <0>         0.0821
     45 H14        -1.7838   -2.5584    3.0325 H         1 <0>         0.1779
     46 H15        -1.2947   -4.9427    2.9525 H         1 <0>         0.2015
     47 H16         0.3191   -4.3901   -2.0408 H         1 <0>         0.4449
     48 H17        -1.6863   -6.6138   -0.2608 H         1 <0>         0.1383
     49 H18        -1.4621   -9.0645   -0.2561 H         1 <0>         0.1541
     50 H19         2.3060   -8.7319   -2.2310 H         1 <0>         0.1554
     51 H20         2.0851   -6.2809   -2.2498 H         1 <0>         0.1509
     52 H21        -0.4780   -5.8676    0.9907 H         1 <0>         0.4392
@<TRIPOS>BOND
     1    1    2 1
     2    1   32 1
     3    1   33 1
     4    1   34 1
     5    2    7 ar
     6    2    3 ar
     7    3    4 ar
     8    3   35 1
     9    4    5 ar
    10    4   36 1
    11    5   23 ar
    12    5    6 ar
    13    6    7 ar
    14    6   20 ar
    15    7    8 1
    16    8   13 ar
    17    8    9 ar
    18    9   10 ar
    19    9   37 1
    20   10   11 ar
    21   10   38 1
    22   11   17 ar
    23   11   12 ar
    24   12   13 ar
    25   12   14 ar
    26   13   39 1
    27   14   15 ar
    28   14   40 1
    29   15   16 ar
    30   16   17 ar
    31   16   18 1
    32   18   19 1
    33   18   41 1
    34   19   42 1
    35   19   43 1
    36   19   44 1
    37   20   21 ar
    38   20   45 1
    39   21   22 ar
    40   21   46 1
    41   22   23 ar
    42   22   52 1
    43   23   24 1
    44   24   25 1
    45   24   47 1
    46   25   30 ar
    47   25   26 ar
    48   26   27 ar
    49   26   48 1
    50   27   28 ar
    51   27   49 1
    52   28   29 ar
    53   28   31 1
    54   29   30 ar
    55   29   50 1
    56   30   51 1
@<TRIPOS>MOLECULE
CHEMBL565933
   51    55     0     0     0
SMALL
USER_CHARGES

@<TRIPOS>ATOM
      1 C1         -0.0187    1.5258    0.0104 C.3       1 <0>        -0.1578
      2 C2          0.0021   -0.0041    0.0020 C.3       1 <0>         0.2010
      3 H1          0.5293   -0.3651    0.8851 H         1 <0>         0.1032
      4 C3         -1.4117   -0.5257    0.0127 C.ar      1 <0>        -0.0968
      5 C4         -2.1414   -0.5688   -1.1606 C.ar      1 <0>        -0.1141
      6 C5         -3.4383   -1.0473   -1.1508 C.ar      1 <0>        -0.1147
      7 C6         -4.0053   -1.4831    0.0322 C.ar      1 <0>        -0.1166
      8 C7         -3.2753   -1.4408    1.2054 C.ar      1 <0>        -0.1150
      9 C8         -1.9770   -0.9663    1.1948 C.ar      1 <0>        -0.1055
     10 N1          0.6878   -0.4765   -1.2033 N.pl3     1 <0>        -0.6867
     11 C9          2.0671   -0.5899   -1.2152 C.ar      1 <0>         0.6023
     12 N2          2.7509   -0.2720   -0.1257 N.ar      1 <0>        -0.5738
     13 C10         4.0713   -0.3681   -0.0994 C.ar      1 <0>         0.2241
     14 C11         4.7398   -0.8070   -1.2275 C.ar      1 <0>        -0.3064
     15 C12         3.9927   -1.1340   -2.3585 C.ar      1 <0>         0.4487
     16 N3          2.6702   -1.0187   -2.3135 N.ar      1 <0>        -0.5921
     17 N4          4.6242   -1.5801   -3.5178 N.pl3     1 <0>        -0.4389
     18 C13         5.9664   -1.7527   -3.6931 C.2       1 <0>         0.2762
     19 N5          6.2080   -2.1816   -4.8965 N.2       1 <0>        -0.4642
     20 C14         5.0400   -2.3147   -5.5785 C.ar      1 <0>         0.0365
     21 C15         4.0068   -1.9359   -4.7029 C.ar      1 <0>         0.0746
     22 C16         2.6849   -1.9749   -5.1259 C.ar      1 <0>        -0.0918
     23 C17         2.3824   -2.3846   -6.3936 C.ar      1 <0>        -0.0739
     24 C18         3.3975   -2.7678   -7.2759 C.ar      1 <0>        -0.0658
     25 C19         4.7263   -2.7278   -6.8731 C.ar      1 <0>        -0.0081
     26 C20         3.0547   -3.2107   -8.6486 C.ar      1 <0>         0.2693
     27 C21         1.7357   -3.1450   -9.1069 C.ar      1 <0>        -0.2827
     28 C22         1.4640   -3.5689  -10.3950 C.ar      1 <0>         0.1975
     29 N6          2.4529   -4.0209  -11.1504 N.ar      1 <0>        -0.5763
     30 C23         3.6944   -4.0721  -10.6900 C.ar      1 <0>         0.5726
     31 N7          3.9992   -3.6718   -9.4655 N.ar      1 <0>        -0.5683
     32 N8          4.6993   -4.5515  -11.5124 N.pl3     1 <0>        -0.8212
     33 H2          1.0039    1.9031    0.0027 H         1 <0>         0.0658
     34 H3         -0.5459    1.8868   -0.8726 H         1 <0>         0.0578
     35 H4         -0.5289    1.8773    0.9072 H         1 <0>         0.0708
     36 H5         -1.6984   -0.2284   -2.0848 H         1 <0>         0.1195
     37 H6         -4.0086   -1.0803   -2.0673 H         1 <0>         0.1247
     38 H7         -5.0188   -1.8562    0.0400 H         1 <0>         0.1241
     39 H8         -3.7184   -1.7809    2.1297 H         1 <0>         0.1256
     40 H9         -1.4054   -0.9367    2.1106 H         1 <0>         0.1257
     41 H10         0.1751   -0.7099   -1.9930 H         1 <0>         0.4133
     42 H11         4.6201   -0.1064    0.7932 H         1 <0>         0.1801
     43 H12         5.8163   -0.8940   -1.2326 H         1 <0>         0.1519
     44 H13         6.7183   -1.5607   -2.9419 H         1 <0>         0.2252
     45 H14         1.8942   -1.6811   -4.4513 H         1 <0>         0.1444
     46 H15         1.3522   -2.4130   -6.7166 H         1 <0>         0.1402
     47 H16         5.5102   -3.0247   -7.5542 H         1 <0>         0.1474
     48 H17         0.9473   -2.7723   -8.4699 H         1 <0>         0.1472
     49 H18         0.4558   -3.5320  -10.7804 H         1 <0>         0.1705
     50 H19         4.4904   -4.8446  -12.4131 H         1 <0>         0.4155
     51 H20         5.6124   -4.5943  -11.1879 H         1 <0>         0.4150
@<TRIPOS>BOND
     1    1    2 1
     2    1   33 1
     3    1   34 1
     4    1   35 1
     5    2    3 1
     6    2    4 1
     7    2   10 1
     8    4    9 ar
     9    4    5 ar
    10    5    6 ar
    11    5   36 1
    12    6    7 ar
    13    6   37 1
    14    7    8 ar
    15    7   38 1
    16    8    9 ar
    17    8   39 1
    18    9   40 1
    19   10   11 1
    20   10   41 1
    21   11   16 ar
    22   11   12 ar
    23   12   13 ar
    24   13   14 ar
    25   13   42 1
    26   14   15 ar
    27   14   43 1
    28   15   16 ar
    29   15   17 1
    30   17   21 1
    31   17   18 1
    32   18   19 2
    33   18   44 1
    34   19   20 1
    35   20   25 ar
    36   20   21 ar
    37   21   22 ar
    38   22   23 ar
    39   22   45 1
    40   23   24 ar
    41   23   46 1
    42   24   25 ar
    43   24   26 1
    44   25   47 1
    45   26   31 ar
    46   26   27 ar
    47   27   28 ar
    48   27   48 1
    49   28   29 ar
    50   28   49 1
    51   29   30 ar
    52   30   31 ar
    53   30   32 1
    54   32   50 1
    55   32   51 1
@<TRIPOS>MOLECULE
CHEMBL306012
   38    40     0     0     0
SMALL
USER_CHARGES

@<TRIPOS>ATOM
      1 C1         -0.0187    1.5258    0.0104 C.3       1 <0>        -0.1600
      2 C2          0.0021   -0.0041    0.0020 C.3       1 <0>         0.1599
      3 C3          0.7421   -0.5109    1.2415 C.3       1 <0>        -0.1608
      4 C4         -1.4333   -0.5336    0.0129 C.3       1 <0>        -0.1604
      5 N1          0.6878   -0.4765   -1.2033 N.pl3     1 <0>        -0.4445
      6 C5          1.2286    0.3341   -2.1637 C.2       1 <0>         0.0664
      7 C6          1.7855   -0.4247   -3.1396 C.2       1 <0>        -0.1128
      8 C7          1.5724   -1.8250   -2.7521 C.ar      1 <0>        -0.2536
      9 C8          0.8842   -1.7920   -1.5267 C.ar      1 <0>         0.3515
     10 N2          0.5671   -2.9474   -0.9439 N.ar      1 <0>        -0.5658
     11 C9          0.8941   -4.0932   -1.5015 C.ar      1 <0>         0.3599
     12 N3          1.5431   -4.1684   -2.6492 N.ar      1 <0>        -0.6014
     13 C10         1.8949   -3.0689   -3.3105 C.ar      1 <0>         0.4922
     14 N4          2.5764   -3.1516   -4.5116 N.pl3     1 <0>        -0.8326
     15 C11         2.4742    0.0633   -4.3583 C.ar      1 <0>         0.0003
     16 C12         3.7286   -0.4391   -4.7015 C.ar      1 <0>        -0.1166
     17 C13         4.3651    0.0182   -5.8371 C.ar      1 <0>        -0.1019
     18 C14         3.7605    0.9746   -6.6349 C.ar      1 <0>        -0.0387
     19 C15         2.5152    1.4772   -6.2983 C.ar      1 <0>        -0.1008
     20 C16         1.8673    1.0221   -5.1682 C.ar      1 <0>        -0.0980
     21 Cl1         4.5670    1.5461   -8.0620 Cl        1 <0>        -0.0666
     22 H1          1.0039    1.9031    0.0027 H         1 <0>         0.0679
     23 H2         -0.5459    1.8868   -0.8726 H         1 <0>         0.0678
     24 H3         -0.5289    1.8773    0.9072 H         1 <0>         0.0828
     25 H4          0.2319   -0.1594    2.1383 H         1 <0>         0.0757
     26 H5          0.7568   -1.6008    1.2356 H         1 <0>         0.0783
     27 H6          1.7647   -0.1336    1.2338 H         1 <0>         0.0592
     28 H7         -1.9605   -0.1726   -0.8702 H         1 <0>         0.0592
     29 H8         -1.4185   -1.6235    0.0069 H         1 <0>         0.0782
     30 H9         -1.9435   -0.1821    0.9097 H         1 <0>         0.0757
     31 H10         1.2137    1.4138   -2.1472 H         1 <0>         0.1792
     32 H11         0.6208   -5.0098   -1.0000 H         1 <0>         0.1987
     33 H12         2.8371   -2.3421   -4.9781 H         1 <0>         0.4106
     34 H13         2.7935   -4.0191   -4.8873 H         1 <0>         0.4074
     35 H14         4.2014   -1.1848   -4.0795 H         1 <0>         0.1344
     36 H15         5.3368   -0.3704   -6.1040 H         1 <0>         0.1375
     37 H16         2.0481    2.2235   -6.9238 H         1 <0>         0.1371
     38 H17         0.8938    1.4113   -4.9091 H         1 <0>         0.1349
@<TRIPOS>BOND
     1    1    2 1
     2    1   22 1
     3    1   23 1
     4    1   24 1
     5    2    3 1
     6    2    4 1
     7    2    5 1
     8    3   25 1
     9    3   26 1
    10    3   27 1
    11    4   28 1
    12    4   29 1
    13    4   30 1
    14    5    9 1
    15    5    6 1
    16    6    7 2
    17    6   31 1
    18    7    8 1
    19    7   15 1
    20    8   13 ar
    21    8    9 ar
    22    9   10 ar
    23   10   11 ar
    24   11   12 ar
    25   11   32 1
    26   12   13 ar
    27   13   14 1
    28   14   33 1
    29   14   34 1
    30   15   20 ar
    31   15   16 ar
    32   16   17 ar
    33   16   35 1
    34   17   18 ar
    35   17   36 1
    36   18   19 ar
    37   18   21 1
    38   19   20 ar
    39   19   37 1
    40   20   38 1
@<TRIPOS>MOLECULE
CHEMBL270793
   69    72     0     0     0
SMALL
USER_CHARGES

@<TRIPOS>ATOM
      1 C1         -1.2776    1.0670    0.1873 C.3       1 <0>        -0.1225
      2 C2         -0.6189   -0.2884    0.1777 C.ar      1 <0>        -0.0797
      3 C3         -0.6452   -1.0590   -0.9698 C.ar      1 <0>        -0.1076
      4 C4         -0.0443   -2.3009   -0.9864 C.ar      1 <0>        -0.0959
      5 C5          0.5936   -2.7832    0.1582 C.ar      1 <0>        -0.1282
      6 C6          0.6205   -2.0057    1.3157 C.ar      1 <0>        -0.0523
      7 C7          0.0179   -0.7570    1.3206 C.ar      1 <0>         0.1431
      8 N1          0.0466    0.0291    2.4773 N.am      1 <0>        -0.6730
      9 C8         -0.0189   -0.5544    3.6905 C.2       1 <0>         0.5777
     10 O1         -0.0174   -1.7672    3.7828 O.2       1 <0>        -0.4937
     11 C9         -0.0921    0.2762    4.9040 C.ar      1 <0>        -0.3294
     12 C10        -0.1009    1.6734    4.8195 C.ar      1 <0>         0.2585
     13 N2         -0.1675    2.3826    5.9308 N.ar      1 <0>        -0.5837
     14 C11        -0.2258    1.7918    7.1180 C.ar      1 <0>         0.6225
     15 N3         -0.2202    0.4730    7.2476 N.ar      1 <0>        -0.6273
     16 C12        -0.1613   -0.3138    6.1821 C.ar      1 <0>         0.4618
     17 O2         -0.1621   -1.6596    6.3195 O.3       1 <0>        -0.2619
     18 C13        -0.2346   -2.1758    7.6501 C.3       1 <0>         0.0312
     19 N4         -0.2938    2.5747    8.2517 N.pl3     1 <0>        -0.6843
     20 C14        -0.3009    4.0349    8.1342 C.3       1 <0>         0.1365
     21 C15        -0.3814    4.6584    9.5291 C.3       1 <0>         0.0416
     22 N5         -0.3885    6.1227    9.4112 N.3       1 <0>        -0.5316
     23 C16         0.8942    6.6154    8.8887 C.3       1 <0>         0.0112
     24 C17         0.8225    8.1360    8.7258 C.3       1 <0>         0.0629
     25 O3          0.4860    8.7297    9.9827 O.3       1 <0>        -0.3847
     26 C18        -0.7579    8.2728   10.5205 C.3       1 <0>         0.0630
     27 C19        -0.7022    6.7536   10.7015 C.3       1 <0>         0.0182
     28 C20         1.2377   -4.1137    0.1434 C.2       1 <0>         0.5611
     29 O4          1.7925   -4.5315    1.1411 O.2       1 <0>        -0.5025
     30 N6          1.2100   -4.8634   -0.9762 N.am      1 <0>        -0.6679
     31 C21         1.7107   -6.1690   -0.9561 C.ar      1 <0>         0.1515
     32 C22         2.1927   -6.7477   -2.1233 C.ar      1 <0>        -0.1189
     33 C23         2.6868   -8.0369   -2.0999 C.ar      1 <0>        -0.0965
     34 C24         2.7017   -8.7521   -0.9162 C.ar      1 <0>        -0.0925
     35 C25         2.2223   -8.1791    0.2472 C.ar      1 <0>        -0.1604
     36 C26         1.7324   -6.8877    0.2319 C.ar      1 <0>        -0.0822
     37 C27         2.2401   -8.9622    1.5347 C.3       1 <0>         0.5090
     38 F1          2.7824  -10.2306    1.3016 F         1 <0>        -0.1768
     39 F2          3.0204   -8.2879    2.4799 F         1 <0>        -0.1723
     40 F3          0.9338   -9.0952    2.0177 F         1 <0>        -0.1756
     41 H1         -0.5572    1.8233   -0.1241 H         1 <0>         0.0785
     42 H2         -2.1229    1.0651   -0.5009 H         1 <0>         0.0772
     43 H3         -1.6293    1.2929    1.1940 H         1 <0>         0.0680
     44 H4         -1.1380   -0.6877   -1.8562 H         1 <0>         0.1363
     45 H5         -0.0676   -2.9002   -1.8846 H         1 <0>         0.1272
     46 H6          1.1120   -2.3735    2.2043 H         1 <0>         0.1576
     47 H7          0.1138    0.9942    2.4064 H         1 <0>         0.4085
     48 H8         -0.0534    2.1642    3.8586 H         1 <0>         0.1756
     49 H9          0.6226   -1.8233    8.2237 H         1 <0>         0.0640
     50 H10        -1.1545   -1.8325    8.1234 H         1 <0>         0.0637
     51 H11        -0.2272   -3.2653    7.6180 H         1 <0>         0.1051
     52 H12        -0.3369    2.1583    9.1268 H         1 <0>         0.4168
     53 H13         0.6139    4.3642    7.6413 H         1 <0>         0.0739
     54 H14        -1.1634    4.3479    7.5459 H         1 <0>         0.0841
     55 H15        -1.2962    4.3292   10.0220 H         1 <0>         0.0854
     56 H16         0.4812    4.3454   10.1174 H         1 <0>         0.0446
     57 H17         1.6929    6.3612    9.5856 H         1 <0>         0.0458
     58 H18         1.0942    6.1548    7.9212 H         1 <0>         0.0915
     59 H19         1.7898    8.5124    8.3929 H         1 <0>         0.1002
     60 H20         0.0600    8.3876    7.9887 H         1 <0>         0.0624
     61 H21        -0.9337    8.7481   11.4855 H         1 <0>         0.1005
     62 H22        -1.5664    8.5283    9.8355 H         1 <0>         0.0621
     63 H23        -1.6677    6.3938   11.0574 H         1 <0>         0.0891
     64 H24         0.0709    6.5016   11.4274 H         1 <0>         0.0459
     65 H25         0.8428   -4.4973   -1.7960 H         1 <0>         0.4142
     66 H26         2.1806   -6.1901   -3.0482 H         1 <0>         0.1367
     67 H27         3.0617   -8.4875   -3.0071 H         1 <0>         0.1409
     68 H28         3.0884   -9.7603   -0.9007 H         1 <0>         0.1405
     69 H29         1.3621   -6.4392    1.1420 H         1 <0>         0.1554
@<TRIPOS>BOND
     1    1    2 1
     2    1   41 1
     3    1   42 1
     4    1   43 1
     5    2    7 ar
     6    2    3 ar
     7    3    4 ar
     8    3   44 1
     9    4    5 ar
    10    4   45 1
    11    5    6 ar
    12    5   28 1
    13    6    7 ar
    14    6   46 1
    15    7    8 1
    16    8    9 am
    17    8   47 1
    18    9   10 2
    19    9   11 1
    20   11   16 ar
    21   11   12 ar
    22   12   13 ar
    23   12   48 1
    24   13   14 ar
    25   14   15 ar
    26   14   19 1
    27   15   16 ar
    28   16   17 1
    29   17   18 1
    30   18   49 1
    31   18   50 1
    32   18   51 1
    33   19   20 1
    34   19   52 1
    35   20   21 1
    36   20   53 1
    37   20   54 1
    38   21   22 1
    39   21   55 1
    40   21   56 1
    41   22   27 1
    42   22   23 1
    43   23   24 1
    44   23   57 1
    45   23   58 1
    46   24   25 1
    47   24   59 1
    48   24   60 1
    49   25   26 1
    50   26   27 1
    51   26   61 1
    52   26   62 1
    53   27   63 1
    54   27   64 1
    55   28   29 2
    56   28   30 am
    57   30   31 1
    58   30   65 1
    59   31   36 ar
    60   31   32 ar
    61   32   33 ar
    62   32   66 1
    63   33   34 ar
    64   33   67 1
    65   34   35 ar
    66   34   68 1
    67   35   36 ar
    68   35   37 1
    69   36   69 1
    70   37   38 1
    71   37   39 1
    72   37   40 1
@<TRIPOS>MOLECULE
CHEMBL270793__1
   70    73     0     0     0
SMALL
USER_CHARGES

@<TRIPOS>ATOM
      1 C1         -1.2776    1.0670    0.1873 C.3       1 <0>        -0.1215
      2 C2         -0.6189   -0.2884    0.1777 C.ar      1 <0>        -0.0789
      3 C3         -0.6452   -1.0590   -0.9698 C.ar      1 <0>        -0.1067
      4 C4         -0.0443   -2.3009   -0.9864 C.ar      1 <0>        -0.0915
      5 C5          0.5936   -2.7832    0.1582 C.ar      1 <0>        -0.1256
      6 C6          0.6205   -2.0057    1.3157 C.ar      1 <0>        -0.0519
      7 C7          0.0179   -0.7570    1.3206 C.ar      1 <0>         0.1364
      8 N1          0.0466    0.0291    2.4773 N.am      1 <0>        -0.6696
      9 C8         -0.0189   -0.5544    3.6905 C.2       1 <0>         0.5717
     10 O1         -0.0174   -1.7672    3.7828 O.2       1 <0>        -0.4851
     11 C9         -0.0921    0.2762    4.9040 C.ar      1 <0>        -0.3078
     12 C10        -0.1009    1.6734    4.8195 C.ar      1 <0>         0.2562
     13 N2         -0.1675    2.3826    5.9308 N.ar      1 <0>        -0.5911
     14 C11        -0.2258    1.7918    7.1180 C.ar      1 <0>         0.6177
     15 N3         -0.2202    0.4730    7.2476 N.ar      1 <0>        -0.6184
     16 C12        -0.1613   -0.3138    6.1821 C.ar      1 <0>         0.4632
     17 O2         -0.1621   -1.6596    6.3195 O.3       1 <0>        -0.2553
     18 C13        -0.2346   -2.1758    7.6501 C.3       1 <0>         0.0296
     19 N4         -0.2938    2.5747    8.2517 N.pl3     1 <0>        -0.6933
     20 C14        -0.3009    4.0349    8.1342 C.3       1 <0>         0.1152
     21 C15        -0.3814    4.6584    9.5291 C.3       1 <0>        -0.0239
     22 N5         -0.3885    6.1227    9.4112 N.4       1 <0>        -0.3804
     23 C16         0.8949    6.5759    8.8575 C.3       1 <0>        -0.0515
     24 C17         0.8849    8.1017    8.7355 C.3       1 <0>         0.0367
     25 O3          0.6355    8.6760   10.0215 O.3       1 <0>        -0.3557
     26 C18        -0.5934    8.2457   10.6136 C.3       1 <0>         0.0360
     27 C19        -0.5862    6.7202   10.7390 C.3       1 <0>        -0.0427
     28 C20         1.2377   -4.1137    0.1434 C.2       1 <0>         0.5603
     29 O4          1.7925   -4.5315    1.1411 O.2       1 <0>        -0.5034
     30 N6          1.2100   -4.8634   -0.9762 N.am      1 <0>        -0.6664
     31 C21         1.7107   -6.1690   -0.9561 C.ar      1 <0>         0.1484
     32 C22         2.1927   -6.7477   -2.1233 C.ar      1 <0>        -0.1173
     33 C23         2.6868   -8.0369   -2.0999 C.ar      1 <0>        -0.0956
     34 C24         2.7017   -8.7521   -0.9162 C.ar      1 <0>        -0.0902
     35 C25         2.2223   -8.1791    0.2472 C.ar      1 <0>        -0.1607
     36 C26         1.7324   -6.8877    0.2319 C.ar      1 <0>        -0.0820
     37 C27         2.2401   -8.9622    1.5347 C.3       1 <0>         0.5091
     38 F1          2.7824  -10.2306    1.3016 F         1 <0>        -0.1756
     39 F2          3.0204   -8.2879    2.4799 F         1 <0>        -0.1731
     40 F3          0.9338   -9.0952    2.0177 F         1 <0>        -0.1757
     41 H1         -0.5572    1.8233   -0.1241 H         1 <0>         0.0784
     42 H2         -2.1229    1.0651   -0.5009 H         1 <0>         0.0787
     43 H3         -1.6293    1.2929    1.1940 H         1 <0>         0.0652
     44 H4         -1.1380   -0.6877   -1.8562 H         1 <0>         0.1381
     45 H5         -0.0676   -2.9002   -1.8846 H         1 <0>         0.1296
     46 H6          1.1120   -2.3735    2.2043 H         1 <0>         0.1570
     47 H7          0.1138    0.9942    2.4064 H         1 <0>         0.4071
     48 H8         -0.0534    2.1642    3.8586 H         1 <0>         0.1806
     49 H9         -0.2272   -3.2653    7.6180 H         1 <0>         0.1107
     50 H10         0.6226   -1.8233    8.2237 H         1 <0>         0.0660
     51 H11        -1.1545   -1.8325    8.1234 H         1 <0>         0.0655
     52 H12        -0.3369    2.1583    9.1268 H         1 <0>         0.4233
     53 H13         0.6139    4.3642    7.6413 H         1 <0>         0.0924
     54 H14        -1.1634    4.3479    7.5459 H         1 <0>         0.0931
     55 H15        -1.2962    4.3292   10.0220 H         1 <0>         0.1418
     56 H16         0.4812    4.3454   10.1174 H         1 <0>         0.1399
     57 H17         1.7050    6.2693    9.5192 H         1 <0>         0.1417
     58 H18         1.0424    6.1333    7.8724 H         1 <0>         0.1460
     59 H19         1.8515    8.4436    8.3654 H         1 <0>         0.1436
     60 H20         0.1006    8.4063    8.0425 H         1 <0>         0.0833
     61 H21        -0.6967    8.6918   11.6027 H         1 <0>         0.1437
     62 H22        -1.4283    8.5553    9.9849 H         1 <0>         0.0828
     63 H23        -1.5381    6.3847   11.1507 H         1 <0>         0.1448
     64 H24         0.2245    6.4135   11.4001 H         1 <0>         0.1411
     65 H25         0.8428   -4.4973   -1.7960 H         1 <0>         0.4144
     66 H26         2.1806   -6.1901   -3.0482 H         1 <0>         0.1372
     67 H27         3.0617   -8.4875   -3.0071 H         1 <0>         0.1422
     68 H28         3.0884   -9.7603   -0.9007 H         1 <0>         0.1416
     69 H29         1.3621   -6.4392    1.1420 H         1 <0>         0.1545
     70 H30        -1.1385    6.4073    8.7992 H         1 <0>         0.4263
@<TRIPOS>BOND
     1    1    2 1
     2    1   41 1
     3    1   42 1
     4    1   43 1
     5    2    7 ar
     6    2    3 ar
     7    3    4 ar
     8    3   44 1
     9    4    5 ar
    10    4   45 1
    11    5    6 ar
    12    5   28 1
    13    6    7 ar
    14    6   46 1
    15    7    8 1
    16    8    9 am
    17    8   47 1
    18    9   10 2
    19    9   11 1
    20   11   16 ar
    21   11   12 ar
    22   12   13 ar
    23   12   48 1
    24   13   14 ar
    25   14   15 ar
    26   14   19 1
    27   15   16 ar
    28   16   17 1
    29   17   18 1
    30   18   49 1
    31   18   50 1
    32   18   51 1
    33   19   20 1
    34   19   52 1
    35   20   21 1
    36   20   53 1
    37   20   54 1
    38   21   22 1
    39   21   55 1
    40   21   56 1
    41   22   27 1
    42   22   23 1
    43   22   70 1
    44   23   24 1
    45   23   57 1
    46   23   58 1
    47   24   25 1
    48   24   59 1
    49   24   60 1
    50   25   26 1
    51   26   27 1
    52   26   61 1
    53   26   62 1
    54   27   63 1
    55   27   64 1
    56   28   29 2
    57   28   30 am
    58   30   31 1
    59   30   65 1
    60   31   36 ar
    61   31   32 ar
    62   32   33 ar
    63   32   66 1
    64   33   34 ar
    65   33   67 1
    66   34   35 ar
    67   34   68 1
    68   35   36 ar
    69   35   37 1
    70   36   69 1
    71   37   38 1
    72   37   39 1
    73   37   40 1
@<TRIPOS>MOLECULE
CHEMBL215691
   70    74     0     0     0
SMALL
USER_CHARGES

@<TRIPOS>ATOM
      1 C1          0.0307    1.5035    0.0088 C.3       1 <0>        -0.1275
      2 C2          0.0391   -0.0035    0.0008 C.ar      1 <0>        -0.0365
      3 C3          0.0395   -0.6862   -1.2002 C.ar      1 <0>        -0.1215
      4 C4          0.0472   -2.0662   -1.2163 C.ar      1 <0>        -0.0741
      5 C5          0.0541   -2.7807   -0.0161 C.ar      1 <0>        -0.1422
      6 C6          0.0537   -2.0964    1.1980 C.ar      1 <0>        -0.0362
      7 C7          0.0522   -0.7052    1.2058 C.ar      1 <0>        -0.0624
      8 C8          0.0583    0.0307    2.4941 C.ar      1 <0>        -0.0577
      9 C9          0.9846    1.0651    2.7005 C.ar      1 <0>        -0.0472
     10 C10         1.0120    1.7560    3.8710 C.ar      1 <0>        -0.1179
     11 C11         0.1046    1.4370    4.8935 C.ar      1 <0>         0.2124
     12 C12        -0.8360    0.3928    4.6947 C.ar      1 <0>        -0.2029
     13 C13        -0.8526   -0.3044    3.4800 C.ar      1 <0>        -0.0448
     14 C14        -1.7347    0.0941    5.7365 C.ar      1 <0>         0.2456
     15 N1         -1.6631    0.7960    6.8481 N.ar      1 <0>        -0.5677
     16 C15        -0.7674    1.7695    7.0006 C.ar      1 <0>         0.5618
     17 N2          0.0987    2.0934    6.0602 N.ar      1 <0>        -0.5610
     18 N3         -0.7445    2.4692    8.1934 N.pl3     1 <0>        -0.6991
     19 C16        -1.6935    2.1336    9.2578 C.3       1 <0>         0.1558
     20 C17        -3.0096    2.8813    9.0250 C.3       1 <0>        -0.1618
     21 C18        -3.9676    2.5888   10.1819 C.3       1 <0>        -0.0023
     22 N4         -3.3664    3.0348   11.4445 N.4       1 <0>        -0.3867
     23 C19        -2.1413    2.2712   11.7099 C.3       1 <0>         0.0000
     24 C20        -1.1130    2.5515   10.6119 C.3       1 <0>        -0.1586
     25 C21        -4.3207    2.8234   12.5411 C.3       1 <0>        -0.0473
     26 C22         0.0613   -4.2589   -0.0337 C.2       1 <0>         0.5632
     27 O1          0.0673   -4.8792    1.0117 O.2       1 <0>        -0.5119
     28 N5          0.0613   -4.9189   -1.2088 N.am      1 <0>        -0.6633
     29 C23         0.1847   -6.3117   -1.2285 C.ar      1 <0>         0.1452
     30 C24         0.8044   -6.9706   -0.1742 C.ar      1 <0>        -0.0948
     31 C25         0.9243   -8.3461   -0.1966 C.ar      1 <0>        -0.1035
     32 C26         0.4282   -9.0677   -1.2671 C.ar      1 <0>        -0.0836
     33 C27        -0.1891   -8.4150   -2.3181 C.ar      1 <0>        -0.1654
     34 C28        -0.3170   -7.0397   -2.2994 C.ar      1 <0>        -0.0634
     35 C29        -0.9951   -6.3296   -3.4427 C.3       1 <0>        -0.1396
     36 C30        -0.7282   -9.2053   -3.4825 C.3       1 <0>         0.5112
     37 F1         -0.4873  -10.5674   -3.2730 F         1 <0>        -0.1739
     38 F2         -2.1055   -8.9875   -3.5962 F         1 <0>        -0.1743
     39 F3         -0.0924   -8.7948   -4.6590 F         1 <0>        -0.1741
     40 H1          1.0563    1.8726    0.0029 H         1 <0>         0.0807
     41 H2         -0.4919    1.8686   -0.8754 H         1 <0>         0.0752
     42 H3         -0.4783    1.8593    0.9045 H         1 <0>         0.0732
     43 H4          0.0335   -0.1376   -2.1305 H         1 <0>         0.1371
     44 H5          0.0475   -2.5945   -2.1583 H         1 <0>         0.1287
     45 H6          0.0591   -2.6439    2.1290 H         1 <0>         0.1406
     46 H7          1.6859    1.3155    1.9182 H         1 <0>         0.1389
     47 H8          1.7312    2.5489    4.0142 H         1 <0>         0.1427
     48 H9         -1.5668   -1.0978    3.3160 H         1 <0>         0.1398
     49 H10        -2.4664   -0.6926    5.6263 H         1 <0>         0.1811
     50 H11        -0.1001    3.1822    8.3252 H         1 <0>         0.4183
     51 H12        -1.8781    1.0594    9.2562 H         1 <0>         0.1080
     52 H13        -2.8156    3.9528    8.9752 H         1 <0>         0.0885
     53 H14        -3.4570    2.5478    8.0887 H         1 <0>         0.1159
     54 H15        -4.9057    3.1195   10.0192 H         1 <0>         0.1333
     55 H16        -4.1611    1.5172   10.2307 H         1 <0>         0.1324
     56 H17        -1.7311    2.5674   12.6754 H         1 <0>         0.1366
     57 H18        -2.3737    1.2064   11.7262 H         1 <0>         0.1328
     58 H19        -0.2048    1.9823   10.8099 H         1 <0>         0.1196
     59 H20        -0.8797    3.6161   10.5950 H         1 <0>         0.0945
     60 H21        -4.5666    1.7637   12.6095 H         1 <0>         0.1228
     61 H22        -3.8753    3.1543   13.4792 H         1 <0>         0.1245
     62 H23        -5.2284    3.3953   12.3482 H         1 <0>         0.1245
     63 H24        -0.0244   -4.4277   -2.0409 H         1 <0>         0.4132
     64 H25         1.1923   -6.4077    0.6618 H         1 <0>         0.1547
     65 H26         1.4063   -8.8589    0.6226 H         1 <0>         0.1405
     66 H27         0.5235  -10.1434   -1.2823 H         1 <0>         0.1417
     67 H28        -0.2551   -6.0719   -4.2004 H         1 <0>         0.0856
     68 H29        -1.7501   -6.9831   -3.8797 H         1 <0>         0.0845
     69 H30        -1.4704   -5.4203   -3.0749 H         1 <0>         0.0732
     70 H31        -3.1424    4.0166   11.3808 H         1 <0>         0.4249
@<TRIPOS>BOND
     1    1    2 1
     2    1   40 1
     3    1   41 1
     4    1   42 1
     5    2    7 ar
     6    2    3 ar
     7    3    4 ar
     8    3   43 1
     9    4    5 ar
    10    4   44 1
    11    5    6 ar
    12    5   26 1
    13    6    7 ar
    14    6   45 1
    15    7    8 1
    16    8   13 ar
    17    8    9 ar
    18    9   10 ar
    19    9   46 1
    20   10   11 ar
    21   10   47 1
    22   11   17 ar
    23   11   12 ar
    24   12   13 ar
    25   12   14 ar
    26   13   48 1
    27   14   15 ar
    28   14   49 1
    29   15   16 ar
    30   16   17 ar
    31   16   18 1
    32   18   19 1
    33   18   50 1
    34   19   24 1
    35   19   20 1
    36   19   51 1
    37   20   21 1
    38   20   52 1
    39   20   53 1
    40   21   22 1
    41   21   54 1
    42   21   55 1
    43   22   23 1
    44   22   25 1
    45   22   70 1
    46   23   24 1
    47   23   56 1
    48   23   57 1
    49   24   58 1
    50   24   59 1
    51   25   60 1
    52   25   61 1
    53   25   62 1
    54   26   27 2
    55   26   28 am
    56   28   29 1
    57   28   63 1
    58   29   34 ar
    59   29   30 ar
    60   30   31 ar
    61   30   64 1
    62   31   32 ar
    63   31   65 1
    64   32   33 ar
    65   32   66 1
    66   33   34 ar
    67   33   36 1
    68   34   35 1
    69   35   67 1
    70   35   68 1
    71   35   69 1
    72   36   37 1
    73   36   38 1
    74   36   39 1
@<TRIPOS>MOLECULE
CHEMBL562724
   60    64     0     0     0
SMALL
USER_CHARGES

@<TRIPOS>ATOM
      1 C1         -0.0958    2.0449    0.1864 C.3       1 <0>        -0.1160
      2 C2         -0.1158    0.5568   -0.0503 C.ar      1 <0>        -0.0265
      3 C3         -0.1580    0.0634   -1.3375 C.ar      1 <0>        -0.1781
      4 C4         -0.1767   -1.3108   -1.5650 C.ar      1 <0>         0.2189
      5 C5         -0.1528   -2.1955   -0.5026 C.ar      1 <0>        -0.1731
      6 C6         -0.1095   -1.7058    0.8062 C.ar      1 <0>         0.1183
      7 C7         -0.0861   -0.3174    1.0258 C.ar      1 <0>        -0.0017
      8 N1         -0.0386   -0.1439    2.3999 N.pl3     1 <0>        -0.5819
      9 H1         -0.0164    0.7025    2.8731 H         1 <0>         0.4307
     10 C8         -0.0293   -1.3922    2.9648 C.2       1 <0>         0.3949
     11 N2         -0.0785   -2.3058    2.0220 N.2       1 <0>        -0.5390
     12 C9          0.0172   -1.6677    4.4100 C.2       1 <0>        -0.3019
     13 C10         0.1458   -2.9816    4.8829 C.2       1 <0>         0.3585
     14 C11         0.1866   -3.2003    6.2729 C.2       1 <0>        -0.2728
     15 C12         0.1024   -2.1542    7.1231 C.2       1 <0>         0.1848
     16 N3         -0.0227   -0.8808    6.6652 N.am      1 <0>        -0.6205
     17 H2         -0.0812   -0.1505    7.3008 H         1 <0>         0.4192
     18 C13        -0.0611   -0.6128    5.3467 C.2       1 <0>         0.5568
     19 O1         -0.1683    0.5394    4.9609 O.2       1 <0>        -0.5658
     20 N4          0.2302   -4.0395    4.0028 N.pl3     1 <0>        -0.6819
     21 C14         0.2417   -5.4142    4.5090 C.3       1 <0>         0.0793
     22 C15         0.3412   -6.3894    3.3342 C.3       1 <0>         0.1385
     23 H3         -0.4665   -6.1925    2.6292 H         1 <0>         0.1241
     24 C16         0.2295   -7.8031    3.8440 C.ar      1 <0>        -0.1120
     25 C17         1.3719   -8.5298    4.1228 C.ar      1 <0>        -0.0974
     26 C18         1.2697   -9.8264    4.5904 C.ar      1 <0>        -0.1095
     27 C19         0.0248  -10.3975    4.7797 C.ar      1 <0>        -0.1025
     28 C20        -1.1180   -9.6721    4.5014 C.ar      1 <0>        -0.1063
     29 C21        -1.0164   -8.3720    4.0386 C.ar      1 <0>        -0.0281
     30 Cl1        -2.4516   -7.4578    3.6950 Cl        1 <0>        -0.0588
     31 O2          1.5988   -6.2177    2.6778 O.3       1 <0>        -0.5402
     32 N5         -0.2205   -1.7985   -2.8758 N.pl3     1 <0>        -0.6339
     33 C22        -0.3691   -0.8847   -4.0195 C.3       1 <0>         0.0888
     34 C23         0.7218   -1.2127   -5.0453 C.3       1 <0>         0.0454
     35 O3          0.6848   -2.6109   -5.3409 O.3       1 <0>        -0.3803
     36 C24         0.9599   -3.4537   -4.2194 C.3       1 <0>         0.0460
     37 C25        -0.1131   -3.2400   -3.1516 C.3       1 <0>         0.0882
     38 H4          0.9360    2.3955    0.2083 H         1 <0>         0.0723
     39 H5         -0.6334    2.5480   -0.6174 H         1 <0>         0.0718
     40 H6         -0.5756    2.2677    1.1394 H         1 <0>         0.0612
     41 H7         -0.1770    0.7464   -2.1739 H         1 <0>         0.1287
     42 H8         -0.1677   -3.2602   -0.6830 H         1 <0>         0.1259
     43 H9          0.2849   -4.2040    6.6593 H         1 <0>         0.1526
     44 H10         0.1348   -2.3332    8.1876 H         1 <0>         0.1731
     45 H11         0.2820   -3.8736    3.0485 H         1 <0>         0.4350
     46 H12         1.0985   -5.5514    5.1686 H         1 <0>         0.0768
     47 H13        -0.6775   -5.6052    5.0628 H         1 <0>         0.0838
     48 H14         2.3446   -8.0843    3.9748 H         1 <0>         0.1331
     49 H15         2.1625  -10.3939    4.8078 H         1 <0>         0.1331
     50 H16        -0.0545  -11.4108    5.1448 H         1 <0>         0.1352
     51 H17        -2.0904  -10.1184    4.6490 H         1 <0>         0.1371
     52 H18         2.3644   -6.3772    3.2466 H         1 <0>         0.3747
     53 H19        -1.3514   -1.0198   -4.4722 H         1 <0>         0.0693
     54 H20        -0.2583    0.1461   -3.6826 H         1 <0>         0.0917
     55 H21         0.5466   -0.6429   -5.9579 H         1 <0>         0.1035
     56 H22         1.6976   -0.9530   -4.6348 H         1 <0>         0.0554
     57 H23         0.9560   -4.4962   -4.5377 H         1 <0>         0.1042
     58 H24         1.9365   -3.2022   -3.8059 H         1 <0>         0.0552
     59 H25         0.1671   -3.7683   -2.2403 H         1 <0>         0.0937
     60 H26        -1.0692   -3.6163   -3.5155 H         1 <0>         0.0685
@<TRIPOS>BOND
     1    1    2 1
     2    1   38 1
     3    1   39 1
     4    1   40 1
     5    2    7 ar
     6    2    3 ar
     7    3    4 ar
     8    3   41 1
     9    4    5 ar
    10    4   32 1
    11    5    6 ar
    12    5   42 1
    13    6   11 1
    14    6    7 ar
    15    7    8 1
    16    8    9 1
    17    8   10 1
    18   10   11 2
    19   10   12 1
    20   12   18 1
    21   12   13 2
    22   13   14 1
    23   13   20 1
    24   14   15 2
    25   14   43 1
    26   15   16 1
    27   15   44 1
    28   16   17 1
    29   16   18 am
    30   18   19 2
    31   20   21 1
    32   20   45 1
    33   21   22 1
    34   21   46 1
    35   21   47 1
    36   22   23 1
    37   22   24 1
    38   22   31 1
    39   24   29 ar
    40   24   25 ar
    41   25   26 ar
    42   25   48 1
    43   26   27 ar
    44   26   49 1
    45   27   28 ar
    46   27   50 1
    47   28   29 ar
    48   28   51 1
    49   29   30 1
    50   31   52 1
    51   32   37 1
    52   32   33 1
    53   33   34 1
    54   33   53 1
    55   33   54 1
    56   34   35 1
    57   34   55 1
    58   34   56 1
    59   35   36 1
    60   36   37 1
    61   36   57 1
    62   36   58 1
    63   37   59 1
    64   37   60 1
@<TRIPOS>MOLECULE
CHEMBL459729
   68    72     0     0     0
SMALL
USER_CHARGES

@<TRIPOS>ATOM
      1 C1         -0.0323    1.4986    0.0086 C.3       1 <0>        -0.1129
      2 C2          0.0160   -0.0076    0.0011 C.ar      1 <0>        -0.0312
      3 C3          0.0399   -0.6919   -1.1932 C.ar      1 <0>        -0.1227
      4 C4          0.0844   -2.0781   -1.2100 C.ar      1 <0>        -0.0845
      5 C5          0.1053   -2.7915   -0.0291 C.ar      1 <0>        -0.1065
      6 C6          0.0822   -2.1199    1.1838 C.ar      1 <0>         0.0479
      7 C7          0.0424   -0.7146    1.2070 C.ar      1 <0>         0.0751
      8 N1          0.0339   -0.3341    2.5087 N.2       1 <0>        -0.5364
      9 C8          0.0706   -1.3972    3.2794 C.2       1 <0>         0.4096
     10 N2          0.0931   -2.5284    2.5057 N.pl3     1 <0>        -0.5854
     11 H1          0.1214   -3.4439    2.8251 H         1 <0>         0.4352
     12 C9          0.0743   -1.3771    4.7512 C.2       1 <0>        -0.3120
     13 C10         0.1599   -0.1636    5.4487 C.2       1 <0>         0.3707
     14 C11         0.1598   -0.1899    6.8562 C.2       1 <0>        -0.2751
     15 C12         0.0781   -1.3695    7.5088 C.2       1 <0>         0.1952
     16 N3         -0.0045   -2.5457    6.8332 N.am      1 <0>        -0.6190
     17 H2         -0.0616   -3.3767    7.3303 H         1 <0>         0.4225
     18 C13        -0.0143   -2.5797    5.4877 C.2       1 <0>         0.5607
     19 O1         -0.0948   -3.6480    4.9045 O.2       1 <0>        -0.5690
     20 N4          0.2432    1.0328    4.7688 N.pl3     1 <0>        -0.6895
     21 C14         0.4517    2.2814    5.5061 C.3       1 <0>         0.0924
     22 C15         0.5064    3.4518    4.5221 C.3       1 <0>         0.1296
     23 N5          0.7149    4.7004    5.2594 N.pl3     1 <0>        -0.3688
     24 C16         1.7024    5.5957    5.0426 C.2       1 <0>         0.0761
     25 C17         1.5446    6.6064    5.9293 C.2       1 <0>        -0.1848
     26 C18         0.4226    6.3186    6.7144 C.2       1 <0>         0.0726
     27 N6         -0.0784    5.1795    6.3099 N.2       1 <0>        -0.2794
     28 Cl1         2.5556    8.0107    6.0682 Cl        1 <0>        -0.0338
     29 C19         0.1096   -2.8101   -2.5270 C.3       1 <0>        -0.0466
     30 C20        -1.1061   -3.7367   -2.6212 C.3       1 <0>        -0.1410
     31 C21        -1.0324   -4.5349   -3.9246 C.3       1 <0>        -0.0057
     32 N7          0.1976   -5.3357   -3.9432 N.4       1 <0>        -0.3833
     33 C22         1.3685   -4.4507   -3.9255 C.3       1 <0>        -0.0124
     34 C23         1.3871   -3.6492   -2.6222 C.3       1 <0>        -0.1402
     35 C24         0.2260   -6.1587   -5.1597 C.3       1 <0>        -0.0065
     36 C25         1.4436   -7.0844   -5.1209 C.3       1 <0>        -0.1874
     37 C26         1.4731   -7.9415   -6.3879 C.3       1 <0>         0.0680
     38 F1          2.5864   -8.7880   -6.3524 F         1 <0>        -0.2019
     39 H3          0.9832    1.8947    0.0072 H         1 <0>         0.0730
     40 H4         -0.5604    1.8496   -0.8779 H         1 <0>         0.0687
     41 H5         -0.5545    1.8409    0.9020 H         1 <0>         0.0710
     42 H6          0.0236   -0.1451   -2.1244 H         1 <0>         0.1285
     43 H7          0.1392   -3.8708   -0.0494 H         1 <0>         0.1158
     44 H8          0.2253    0.7327    7.4139 H         1 <0>         0.1577
     45 H9          0.0788   -1.3782    8.5888 H         1 <0>         0.1782
     46 H10         0.1637    1.0479    3.8021 H         1 <0>         0.4294
     47 H11        -0.3710    2.4325    6.2050 H         1 <0>         0.0917
     48 H12         1.3907    2.2257    6.0569 H         1 <0>         0.0812
     49 H13         1.3291    3.3008    3.8233 H         1 <0>         0.1078
     50 H14        -0.4326    3.5075    3.9713 H         1 <0>         0.0986
     51 H15         2.4791    5.5188    4.2961 H         1 <0>         0.1851
     52 H16         0.0343    6.9330    7.5132 H         1 <0>         0.1955
     53 H17         0.0847   -2.0900   -3.3448 H         1 <0>         0.0983
     54 H18        -1.1076   -4.4224   -1.7740 H         1 <0>         0.0891
     55 H19        -2.0192   -3.1414   -2.6102 H         1 <0>         0.1163
     56 H20        -1.8965   -5.1955   -3.9950 H         1 <0>         0.1318
     57 H21        -1.0312   -3.8483   -4.7711 H         1 <0>         0.1310
     58 H22         2.2768   -5.0491   -3.9966 H         1 <0>         0.1320
     59 H23         1.3185   -3.7658   -4.7720 H         1 <0>         0.1315
     60 H24         2.2562   -2.9914   -2.6118 H         1 <0>         0.1157
     61 H25         1.4373   -4.3332   -1.7750 H         1 <0>         0.0889
     62 H26        -0.6835   -6.7568   -5.2151 H         1 <0>         0.1353
     63 H27         0.2893   -5.5117   -6.0347 H         1 <0>         0.1343
     64 H28         2.3531   -6.4863   -5.0655 H         1 <0>         0.0994
     65 H29         1.3803   -7.7314   -4.2460 H         1 <0>         0.0989
     66 H30         0.5636   -8.5396   -6.4433 H         1 <0>         0.0864
     67 H31         1.5364   -7.2946   -7.2629 H         1 <0>         0.0863
     68 H32         0.2190   -5.9363   -3.1327 H         1 <0>         0.4231
@<TRIPOS>BOND
     1    1    2 1
     2    1   39 1
     3    1   40 1
     4    1   41 1
     5    2    7 ar
     6    2    3 ar
     7    3    4 ar
     8    3   42 1
     9    4    5 ar
    10    4   29 1
    11    5    6 ar
    12    5   43 1
    13    6   10 1
    14    6    7 ar
    15    7    8 1
    16    8    9 2
    17    9   10 1
    18    9   12 1
    19   10   11 1
    20   12   18 1
    21   12   13 2
    22   13   14 1
    23   13   20 1
    24   14   15 2
    25   14   44 1
    26   15   16 1
    27   15   45 1
    28   16   17 1
    29   16   18 am
    30   18   19 2
    31   20   21 1
    32   20   46 1
    33   21   22 1
    34   21   47 1
    35   21   48 1
    36   22   23 1
    37   22   49 1
    38   22   50 1
    39   23   27 1
    40   23   24 1
    41   24   25 2
    42   24   51 1
    43   25   26 1
    44   25   28 1
    45   26   27 2
    46   26   52 1
    47   29   34 1
    48   29   30 1
    49   29   53 1
    50   30   31 1
    51   30   54 1
    52   30   55 1
    53   31   32 1
    54   31   56 1
    55   31   57 1
    56   32   33 1
    57   32   35 1
    58   32   68 1
    59   33   34 1
    60   33   58 1
    61   33   59 1
    62   34   60 1
    63   34   61 1
    64   35   36 1
    65   35   62 1
    66   35   63 1
    67   36   37 1
    68   36   64 1
    69   36   65 1
    70   37   38 1
    71   37   66 1
    72   37   67 1
@<TRIPOS>MOLECULE
CHEMBL606459
   63    68     0     0     0
SMALL
USER_CHARGES

@<TRIPOS>ATOM
      1 C1          3.3353    1.3633    3.5661 C.ar      1 <0>        -0.1525
      2 C2          3.4179   -0.0168    3.5458 C.ar      1 <0>        -0.0817
      3 C3          3.5017   -0.6873    2.3410 C.ar      1 <0>        -0.1937
      4 C4          3.5028    0.0255    1.1504 C.ar      1 <0>         0.1216
      5 C5          3.4197    1.4104    1.1736 C.ar      1 <0>        -0.1459
      6 C6          3.3362    2.0759    2.3812 C.ar      1 <0>        -0.0828
      7 O1          3.5855   -0.6316   -0.0361 O.3       1 <0>        -0.2600
      8 C7          3.6573   -1.9880   -0.0104 C.ar      1 <0>         0.0961
      9 C8          2.4931   -2.7443   -0.0459 C.ar      1 <0>        -0.1267
     10 C9          2.5627   -4.1211   -0.0199 C.ar      1 <0>        -0.0715
     11 C10         3.8036   -4.7540    0.0421 C.ar      1 <0>        -0.0200
     12 C11         4.9707   -3.9918    0.0777 C.ar      1 <0>        -0.0768
     13 C12         4.8948   -2.6155    0.0458 C.ar      1 <0>        -0.1228
     14 C13         3.8819   -6.2341    0.0707 C.2       1 <0>         0.1645
     15 C14         4.9265   -7.0672   -0.5465 C.2       1 <0>        -0.2954
     16 C15         4.5707   -8.3735   -0.2569 C.2       1 <0>         0.3805
     17 N1          3.4623   -8.3700    0.4610 N.pl3     1 <0>        -0.3603
     18 N2          3.0337   -7.0512    0.6575 N.2       1 <0>        -0.2679
     19 C16         2.8185   -9.5815    0.9777 C.3       1 <0>         0.1277
     20 C17         3.6772  -10.2521    2.0288 C.3       1 <0>        -0.0846
     21 C18         5.0268  -10.7216    1.5295 C.ar      1 <0>        -0.1568
     22 C19         5.6628  -11.5894    2.4310 C.ar      1 <0>        -0.0570
     23 C20         6.8914  -12.1399    2.1664 C.ar      1 <0>        -0.2191
     24 C21         7.5426  -11.8452    0.9760 C.ar      1 <0>         0.1577
     25 C22         6.9341  -10.9896    0.0786 C.ar      1 <0>        -0.1816
     26 C23         5.6861  -10.4262    0.3580 C.ar      1 <0>         0.2284
     27 N3          5.1888   -9.5530   -0.6102 N.pl3     1 <0>        -0.6856
     28 O2          8.7571  -12.3885    0.6990 O.3       1 <0>        -0.3054
     29 C24         9.3159  -13.2628    1.6815 C.3       1 <0>         0.1074
     30 C25        10.6543  -13.7648    1.2042 C.ar      1 <0>        -0.1526
     31 C26        10.7410  -14.9272    0.4530 C.ar      1 <0>        -0.0501
     32 C27        11.9931  -15.3511    0.0355 C.ar      1 <0>        -0.1754
     33 C28        13.1056  -14.6064    0.3795 C.ar      1 <0>         0.1103
     34 N4         12.9855  -13.5059    1.0958 N.ar      1 <0>        -0.4853
     35 C29        11.8100  -13.0695    1.5047 C.ar      1 <0>         0.1261
     36 C30         6.0943   -6.6111   -1.3066 C.2       1 <0>         0.6111
     37 O3          7.1411   -6.3772   -0.7316 O.2       1 <0>        -0.5314
     38 N5          6.0085   -6.4508   -2.6420 N.am      1 <0>        -0.8467
     39 H1          3.2654    1.8853    4.5090 H         1 <0>         0.1254
     40 H2          3.4174   -0.5711    4.4728 H         1 <0>         0.1261
     41 H3          3.5666   -1.7652    2.3257 H         1 <0>         0.1282
     42 H4          3.4208    1.9675    0.2484 H         1 <0>         0.1326
     43 H5          3.2711    3.1538    2.3998 H         1 <0>         0.1315
     44 H6          1.5323   -2.2535   -0.0936 H         1 <0>         0.1372
     45 H7          1.6569   -4.7087   -0.0473 H         1 <0>         0.1377
     46 H8          5.9333   -4.4792    0.1258 H         1 <0>         0.1411
     47 H9          5.7986   -2.0247    0.0689 H         1 <0>         0.1374
     48 H10         1.8576   -9.3153    1.4181 H         1 <0>         0.1114
     49 H11         2.6529  -10.2768    0.1548 H         1 <0>         0.0938
     50 H12         3.8367   -9.5480    2.8454 H         1 <0>         0.0823
     51 H13         3.1350  -11.1128    2.4203 H         1 <0>         0.1028
     52 H14         5.1703  -11.8307    3.3614 H         1 <0>         0.1284
     53 H15         7.3522  -12.8023    2.8843 H         1 <0>         0.1315
     54 H16         7.4294  -10.7527   -0.8514 H         1 <0>         0.1351
     55 H17         5.2797   -9.7806   -1.5487 H         1 <0>         0.4207
     56 H18         9.4442  -12.7214    2.6188 H         1 <0>         0.0779
     57 H19         8.6459  -14.1081    1.8389 H         1 <0>         0.0762
     58 H20         9.8542  -15.4890    0.1995 H         1 <0>         0.1371
     59 H21        12.0980  -16.2521   -0.5507 H         1 <0>         0.1400
     60 H22        14.0847  -14.9299    0.0582 H         1 <0>         0.1600
     61 H23        11.7505  -12.1607    2.0852 H         1 <0>         0.1579
     62 H24         5.1742   -6.6372   -3.1003 H         1 <0>         0.4019
     63 H25         6.7811   -6.1491   -3.1449 H         1 <0>         0.4042
@<TRIPOS>BOND
     1    1    6 ar
     2    1    2 ar
     3    1   39 1
     4    2    3 ar
     5    2   40 1
     6    3    4 ar
     7    3   41 1
     8    4    5 ar
     9    4    7 1
    10    5    6 ar
    11    5   42 1
    12    6   43 1
    13    7    8 1
    14    8   13 ar
    15    8    9 ar
    16    9   10 ar
    17    9   44 1
    18   10   11 ar
    19   10   45 1
    20   11   12 ar
    21   11   14 1
    22   12   13 ar
    23   12   46 1
    24   13   47 1
    25   14   18 2
    26   14   15 1
    27   15   16 2
    28   15   36 1
    29   16   27 1
    30   16   17 1
    31   17   18 1
    32   17   19 1
    33   19   20 1
    34   19   48 1
    35   19   49 1
    36   20   21 1
    37   20   50 1
    38   20   51 1
    39   21   26 ar
    40   21   22 ar
    41   22   23 ar
    42   22   52 1
    43   23   24 ar
    44   23   53 1
    45   24   25 ar
    46   24   28 1
    47   25   26 ar
    48   25   54 1
    49   26   27 1
    50   27   55 1
    51   28   29 1
    52   29   30 1
    53   29   56 1
    54   29   57 1
    55   30   35 ar
    56   30   31 ar
    57   31   32 ar
    58   31   58 1
    59   32   33 ar
    60   32   59 1
    61   33   34 ar
    62   33   60 1
    63   34   35 ar
    64   35   61 1
    65   36   37 2
    66   36   38 am
    67   38   62 1
    68   38   63 1
@<TRIPOS>MOLECULE
CHEMBL591793
   70    75     0     0     0
SMALL
USER_CHARGES

@<TRIPOS>ATOM
      1 C1          3.0097    1.5782    1.8800 C.ar      1 <0>        -0.1523
      2 C2          3.1575    0.2045    1.9340 C.ar      1 <0>        -0.0820
      3 C3          3.5805   -0.4903    0.8176 C.ar      1 <0>        -0.1931
      4 C4          3.8570    0.1915   -0.3589 C.ar      1 <0>         0.1212
      5 C5          3.7078    1.5701   -0.4104 C.ar      1 <0>        -0.1457
      6 C6          3.2845    2.2601    0.7089 C.ar      1 <0>        -0.0831
      7 O1          4.2736   -0.4896   -1.4584 O.3       1 <0>        -0.2598
      8 C7          4.3011   -1.8464   -1.3957 C.ar      1 <0>         0.0964
      9 C8          3.1384   -2.5738   -1.6132 C.ar      1 <0>        -0.1302
     10 C9          3.1630   -3.9509   -1.5503 C.ar      1 <0>        -0.0711
     11 C10         4.3572   -4.6132   -1.2680 C.ar      1 <0>        -0.0201
     12 C11         5.5230   -3.8800   -1.0501 C.ar      1 <0>        -0.0764
     13 C12         5.4931   -2.5033   -1.1200 C.ar      1 <0>        -0.1208
     14 C13         4.3870   -6.0938   -1.1991 C.2       1 <0>         0.1642
     15 C14         5.4962   -6.9669   -1.6156 C.2       1 <0>        -0.2960
     16 C15         5.0595   -8.2568   -1.3660 C.2       1 <0>         0.3814
     17 N1          3.8467   -8.2089   -0.8457 N.pl3     1 <0>        -0.3604
     18 N2          3.4292   -6.8755   -0.7488 N.2       1 <0>        -0.2685
     19 C16         3.0907   -9.3915   -0.4225 C.3       1 <0>         0.1279
     20 C17         3.7408  -10.0590    0.7706 C.3       1 <0>        -0.0838
     21 C18         5.1412  -10.5737    0.5150 C.ar      1 <0>        -0.1602
     22 C19         5.5913  -11.4361    1.5269 C.ar      1 <0>        -0.0576
     23 C20         6.8307  -12.0233    1.4837 C.ar      1 <0>        -0.2216
     24 C21         7.6809  -11.7727    0.4149 C.ar      1 <0>         0.1611
     25 C22         7.2568  -10.9230   -0.5880 C.ar      1 <0>        -0.1832
     26 C23         5.9962  -10.3221   -0.5337 C.ar      1 <0>         0.2284
     27 N3          5.6941   -9.4594   -1.5880 N.pl3     1 <0>        -0.6857
     28 O2          8.9086  -12.3526    0.3570 O.3       1 <0>        -0.2930
     29 C24         9.2690  -13.2178    1.4358 C.3       1 <0>         0.0661
     30 C25        10.6747  -13.7724    1.1969 C.3       1 <0>         0.0544
     31 N4         11.6455  -12.6700    1.2136 N.3       1 <0>        -0.5306
     32 C26        12.9037  -13.0661    0.5645 C.3       1 <0>         0.0190
     33 C27        13.8624  -11.8725    0.5508 C.3       1 <0>         0.0625
     34 O3         14.0650  -11.4149    1.8905 O.3       1 <0>        -0.3849
     35 C28        12.8602  -11.0204    2.5525 C.3       1 <0>         0.0631
     36 C29        11.8914  -12.2053    2.5865 C.3       1 <0>         0.0145
     37 C30         6.7878   -6.5580   -2.1761 C.2       1 <0>         0.6114
     38 O4          7.7294   -6.3373   -1.4372 O.2       1 <0>        -0.5313
     39 N5          6.9325   -6.4266   -3.5096 N.am      1 <0>        -0.8468
     40 H1          2.6746    2.1191    2.7527 H         1 <0>         0.1253
     41 H2          2.9425   -0.3256    2.8501 H         1 <0>         0.1261
     42 H3          3.6962   -1.5633    0.8604 H         1 <0>         0.1282
     43 H4          3.9227    2.1032   -1.3248 H         1 <0>         0.1326
     44 H5          3.1679    3.3330    0.6692 H         1 <0>         0.1314
     45 H6          2.2137   -2.0602   -1.8315 H         1 <0>         0.1364
     46 H7          2.2583   -4.5161   -1.7192 H         1 <0>         0.1373
     47 H8          6.4494   -4.3902   -0.8312 H         1 <0>         0.1414
     48 H9          6.3967   -1.9350   -0.9557 H         1 <0>         0.1380
     49 H10         2.0775   -9.0912   -0.1557 H         1 <0>         0.1108
     50 H11         3.0460  -10.1013   -1.2485 H         1 <0>         0.0936
     51 H12         3.7808   -9.3404    1.5892 H         1 <0>         0.0811
     52 H13         3.1161  -10.8965    1.0809 H         1 <0>         0.1018
     53 H14         4.9426  -11.6434    2.3651 H         1 <0>         0.1263
     54 H15         7.1450  -12.6803    2.2812 H         1 <0>         0.1286
     55 H16         7.9081  -10.7203   -1.4254 H         1 <0>         0.1345
     56 H17         5.9350   -9.7109   -2.4933 H         1 <0>         0.4204
     57 H18         9.2532  -12.6582    2.3710 H         1 <0>         0.0636
     58 H19         8.5581  -14.0420    1.4935 H         1 <0>         0.0688
     59 H20        10.9220  -14.4862    1.9827 H         1 <0>         0.0620
     60 H21        10.7086  -14.2718    0.2286 H         1 <0>         0.0887
     61 H22        13.3553  -13.8894    1.1179 H         1 <0>         0.0436
     62 H23        12.7015  -13.3823   -0.4589 H         1 <0>         0.0883
     63 H24        14.8170  -12.1774    0.1220 H         1 <0>         0.0994
     64 H25        13.4340  -11.0685   -0.0476 H         1 <0>         0.0618
     65 H26        13.0901  -10.7089    3.5715 H         1 <0>         0.0990
     66 H27        12.4028  -10.1915    2.0123 H         1 <0>         0.0619
     67 H28        10.9503  -11.8931    3.0391 H         1 <0>         0.0848
     68 H29        12.3269  -13.0148    3.1723 H         1 <0>         0.0445
     69 H30         6.1821   -6.6025   -4.0986 H         1 <0>         0.4018
     70 H31         7.7870   -6.1561   -3.8805 H         1 <0>         0.4041
@<TRIPOS>BOND
     1    1    6 ar
     2    1    2 ar
     3    1   40 1
     4    2    3 ar
     5    2   41 1
     6    3    4 ar
     7    3   42 1
     8    4    5 ar
     9    4    7 1
    10    5    6 ar
    11    5   43 1
    12    6   44 1
    13    7    8 1
    14    8   13 ar
    15    8    9 ar
    16    9   10 ar
    17    9   45 1
    18   10   11 ar
    19   10   46 1
    20   11   12 ar
    21   11   14 1
    22   12   13 ar
    23   12   47 1
    24   13   48 1
    25   14   18 2
    26   14   15 1
    27   15   16 2
    28   15   37 1
    29   16   27 1
    30   16   17 1
    31   17   18 1
    32   17   19 1
    33   19   20 1
    34   19   49 1
    35   19   50 1
    36   20   21 1
    37   20   51 1
    38   20   52 1
    39   21   26 ar
    40   21   22 ar
    41   22   23 ar
    42   22   53 1
    43   23   24 ar
    44   23   54 1
    45   24   25 ar
    46   24   28 1
    47   25   26 ar
    48   25   55 1
    49   26   27 1
    50   27   56 1
    51   28   29 1
    52   29   30 1
    53   29   57 1
    54   29   58 1
    55   30   31 1
    56   30   59 1
    57   30   60 1
    58   31   36 1
    59   31   32 1
    60   32   33 1
    61   32   61 1
    62   32   62 1
    63   33   34 1
    64   33   63 1
    65   33   64 1
    66   34   35 1
    67   35   36 1
    68   35   65 1
    69   35   66 1
    70   36   67 1
    71   36   68 1
    72   37   38 2
    73   37   39 am
    74   39   69 1
    75   39   70 1
@<TRIPOS>MOLECULE
CHEMBL591793__1
   71    76     0     0     0
SMALL
USER_CHARGES

@<TRIPOS>ATOM
      1 C1          2.8398    1.5164    2.8582 C.ar      1 <0>        -0.1503
      2 C2          2.8138    0.1358    2.7862 C.ar      1 <0>        -0.0821
      3 C3          3.2564   -0.5060    1.6459 C.ar      1 <0>        -0.1957
      4 C4          3.7274    0.2360    0.5721 C.ar      1 <0>         0.1192
      5 C5          3.7525    1.6214    0.6470 C.ar      1 <0>        -0.1438
      6 C6          3.3087    2.2582    1.7896 C.ar      1 <0>        -0.0816
      7 O1          4.1638   -0.3929   -0.5506 O.3       1 <0>        -0.2595
      8 C7          4.1932   -1.7511   -0.5502 C.ar      1 <0>         0.1031
      9 C8          3.0208   -2.4696   -0.7442 C.ar      1 <0>        -0.1329
     10 C9          3.0475   -3.8482   -0.7444 C.ar      1 <0>        -0.0688
     11 C10         4.2532   -4.5208   -0.5495 C.ar      1 <0>        -0.0285
     12 C11         5.4287   -3.7965   -0.3550 C.ar      1 <0>        -0.0757
     13 C12         5.3965   -2.4180   -0.3616 C.ar      1 <0>        -0.1201
     14 C13         4.2853   -6.0029   -0.5487 C.2       1 <0>         0.1704
     15 C14         5.3726   -6.8549   -1.0565 C.2       1 <0>        -0.2921
     16 C15         4.9474   -8.1553   -0.8444 C.2       1 <0>         0.3716
     17 N1          3.7609   -8.1325   -0.2650 N.pl3     1 <0>        -0.3606
     18 N2          3.3495   -6.8054   -0.0885 N.2       1 <0>        -0.2635
     19 C16         3.0252   -9.3340    0.1404 C.3       1 <0>         0.1257
     20 C17         3.7312  -10.0533    1.2699 C.3       1 <0>        -0.0905
     21 C18         5.1173  -10.5541    0.9247 C.ar      1 <0>        -0.1383
     22 C19         5.6147  -11.4604    1.8742 C.ar      1 <0>        -0.0546
     23 C20         6.8501  -12.0433    1.7455 C.ar      1 <0>        -0.2168
     24 C21         7.6484  -11.7438    0.6496 C.ar      1 <0>         0.1391
     25 C22         7.1774  -10.8507   -0.2928 C.ar      1 <0>        -0.1720
     26 C23         5.9213  -10.2546   -0.1514 C.ar      1 <0>         0.2328
     27 N3          5.5697   -9.3458   -1.1502 N.pl3     1 <0>        -0.6839
     28 O2          8.8715  -12.3189    0.5070 O.3       1 <0>        -0.3263
     29 C24         9.2824  -13.2310    1.5274 C.3       1 <0>         0.0260
     30 C25        10.6747  -13.7724    1.1969 C.3       1 <0>         0.0000
     31 N4         11.6455  -12.6700    1.2136 N.4       1 <0>        -0.3875
     32 C26        12.9508  -13.1595    0.7492 C.3       1 <0>        -0.0435
     33 C27        13.9604  -12.0091    0.7673 C.3       1 <0>         0.0351
     34 O3         14.0409  -11.4731    2.0909 O.3       1 <0>        -0.3556
     35 C28        12.7880  -11.0044    2.5975 C.3       1 <0>         0.0365
     36 C29        11.7763  -12.1530    2.5828 C.3       1 <0>        -0.0497
     37 C30         6.6362   -6.4195   -1.6593 C.2       1 <0>         0.6130
     38 O4          7.6122   -6.2308   -0.9571 O.2       1 <0>        -0.5369
     39 N5          6.7170   -6.2282   -2.9909 N.am      1 <0>        -0.8451
     40 H1          2.4892    2.0164    3.7490 H         1 <0>         0.1266
     41 H2          2.4474   -0.4412    3.6224 H         1 <0>         0.1263
     42 H3          3.2362   -1.5844    1.5903 H         1 <0>         0.1280
     43 H4          4.1189    2.2012   -0.1872 H         1 <0>         0.1335
     44 H5          3.3276    3.3364    1.8483 H         1 <0>         0.1330
     45 H6          2.0871   -1.9481   -0.8947 H         1 <0>         0.1386
     46 H7          2.1353   -4.4064   -0.8949 H         1 <0>         0.1377
     47 H8          6.3642   -4.3146   -0.2039 H         1 <0>         0.1396
     48 H9          6.3074   -1.8565   -0.2154 H         1 <0>         0.1389
     49 H10         2.0261   -9.0473    0.4686 H         1 <0>         0.1157
     50 H11         2.9405  -10.0061   -0.7135 H         1 <0>         0.0951
     51 H12         3.8108   -9.3722    2.1171 H         1 <0>         0.0873
     52 H13         3.1213  -10.9048    1.5719 H         1 <0>         0.1076
     53 H14         5.0067  -11.7059    2.7324 H         1 <0>         0.1339
     54 H15         7.2017  -12.7350    2.4967 H         1 <0>         0.1302
     55 H16         7.7880  -10.6096   -1.1504 H         1 <0>         0.1369
     56 H17         5.7668   -9.5561   -2.0764 H         1 <0>         0.4222
     57 H18         9.3119  -12.7140    2.4865 H         1 <0>         0.0875
     58 H19         8.5745  -14.0580    1.5820 H         1 <0>         0.1126
     59 H20        10.9597  -14.5188    1.9384 H         1 <0>         0.1514
     60 H21        10.6613  -14.2298    0.2076 H         1 <0>         0.1448
     61 H22        13.2957  -13.9564    1.4081 H         1 <0>         0.1403
     62 H23        12.8549  -13.5432   -0.2665 H         1 <0>         0.1439
     63 H24        14.9397  -12.3794    0.4643 H         1 <0>         0.1434
     64 H25        13.6361  -11.2294    0.0780 H         1 <0>         0.0820
     65 H26        12.9190  -10.6477    3.6191 H         1 <0>         0.1431
     66 H27        12.4237  -10.1904    1.9708 H         1 <0>         0.0827
     67 H28        10.8085  -11.7895    2.9282 H         1 <0>         0.1399
     68 H29        12.1217  -12.9502    3.2410 H         1 <0>         0.1415
     69 H30         5.9391   -6.3786   -3.5506 H         1 <0>         0.4038
     70 H31         7.5530   -5.9401   -3.3897 H         1 <0>         0.4050
     71 H32        11.3267  -11.9317    0.6042 H         1 <0>         0.4305
@<TRIPOS>BOND
     1    1    6 ar
     2    1    2 ar
     3    1   40 1
     4    2    3 ar
     5    2   41 1
     6    3    4 ar
     7    3   42 1
     8    4    5 ar
     9    4    7 1
    10    5    6 ar
    11    5   43 1
    12    6   44 1
    13    7    8 1
    14    8   13 ar
    15    8    9 ar
    16    9   10 ar
    17    9   45 1
    18   10   11 ar
    19   10   46 1
    20   11   12 ar
    21   11   14 1
    22   12   13 ar
    23   12   47 1
    24   13   48 1
    25   14   18 2
    26   14   15 1
    27   15   16 2
    28   15   37 1
    29   16   27 1
    30   16   17 1
    31   17   18 1
    32   17   19 1
    33   19   20 1
    34   19   49 1
    35   19   50 1
    36   20   21 1
    37   20   51 1
    38   20   52 1
    39   21   26 ar
    40   21   22 ar
    41   22   23 ar
    42   22   53 1
    43   23   24 ar
    44   23   54 1
    45   24   25 ar
    46   24   28 1
    47   25   26 ar
    48   25   55 1
    49   26   27 1
    50   27   56 1
    51   28   29 1
    52   29   30 1
    53   29   57 1
    54   29   58 1
    55   30   31 1
    56   30   59 1
    57   30   60 1
    58   31   36 1
    59   31   32 1
    60   31   71 1
    61   32   33 1
    62   32   61 1
    63   32   62 1
    64   33   34 1
    65   33   63 1
    66   33   64 1
    67   34   35 1
    68   35   36 1
    69   35   65 1
    70   35   66 1
    71   36   67 1
    72   36   68 1
    73   37   38 2
    74   37   39 am
    75   39   69 1
    76   39   70 1
@<TRIPOS>MOLECULE
CHEMBL377481
   77    82     0     0     0
SMALL
USER_CHARGES

@<TRIPOS>ATOM
      1 C1         -3.3258    4.6642    3.9097 C.3       1 <0>        -0.1116
      2 C2         -3.0957    4.4823    2.4315 C.ar      1 <0>        -0.0731
      3 C3         -3.8352    5.2130    1.5218 C.ar      1 <0>        -0.1151
      4 C4         -3.6246    5.0465    0.1654 C.ar      1 <0>        -0.0979
      5 C5         -2.6739    4.1488   -0.2839 C.ar      1 <0>        -0.1152
      6 C6         -1.9318    3.4158    0.6218 C.ar      1 <0>        -0.0749
      7 C7         -2.1372    3.5851    1.9833 C.ar      1 <0>         0.0882
      8 O1         -1.4041    2.8694    2.8767 O.3       1 <0>        -0.2915
      9 C8         -1.8807    1.6734    3.2716 C.2       1 <0>         0.6575
     10 O2         -2.9364    1.2644    2.8306 O.2       1 <0>        -0.5151
     11 N1         -1.1866    0.9300    4.1560 N.am      1 <0>        -0.4990
     12 C9         -1.7301   -0.2639    4.6461 C.ar      1 <0>         0.1385
     13 C10        -2.0683   -0.3663    6.0005 C.ar      1 <0>        -0.1086
     14 C11        -2.5970   -1.5129    6.5037 C.ar      1 <0>        -0.0919
     15 C12        -2.8109   -2.6159    5.6586 C.ar      1 <0>        -0.0447
     16 C13        -3.3564   -3.8139    6.1509 C.ar      1 <0>        -0.1077
     17 C14        -3.5512   -4.8631    5.3062 C.ar      1 <0>        -0.1072
     18 C15        -3.2171   -4.7696    3.9563 C.ar      1 <0>        -0.1117
     19 C16        -2.6868   -3.6259    3.4438 C.ar      1 <0>        -0.1004
     20 C17        -2.4716   -2.5207    4.2856 C.ar      1 <0>        -0.0453
     21 C18        -1.9315   -1.3229    3.7896 C.ar      1 <0>        -0.0701
     22 C19         0.0701    1.3489    4.5820 C.ar      1 <0>         0.4430
     23 C20         1.2090    1.0418    3.8364 C.ar      1 <0>        -0.2537
     24 C21         2.4365    1.4781    4.2975 C.ar      1 <0>         0.2027
     25 N2          2.4961    2.1701    5.4255 N.ar      1 <0>        -0.5533
     26 C22         1.3978    2.4471    6.1128 C.ar      1 <0>         0.5776
     27 N3          0.2023    2.0515    5.7015 N.ar      1 <0>        -0.5575
     28 N4          1.5017    3.1727    7.2878 N.pl3     1 <0>        -0.6368
     29 C23         2.7623    3.5478    7.7703 C.ar      1 <0>         0.1309
     30 C24         3.7699    3.8980    6.8814 C.ar      1 <0>        -0.0645
     31 C25         5.0122    4.2682    7.3569 C.ar      1 <0>        -0.1648
     32 C26         5.2540    4.2902    8.7243 C.ar      1 <0>         0.1793
     33 C27         4.2462    3.9400    9.6133 C.ar      1 <0>        -0.1634
     34 C28         3.0024    3.5749    9.1378 C.ar      1 <0>        -0.0982
     35 N5          6.5133    4.6649    9.2063 N.pl3     1 <0>        -0.6456
     36 C29         6.8378    4.5586   10.6372 C.3       1 <0>         0.1007
     37 C30         8.1664    3.8085   10.7795 C.3       1 <0>        -0.0233
     38 N6          9.1944    4.4785    9.9730 N.4       1 <0>        -0.3837
     39 C31         8.8451    4.3967    8.5492 C.3       1 <0>        -0.0232
     40 C32         7.5521    5.1706    8.2956 C.3       1 <0>         0.0993
     41 C33        10.4913    3.8255   10.1955 C.3       1 <0>        -0.0470
     42 C34        -0.8957    2.4375    0.1314 C.3       1 <0>        -0.1116
     43 H1         -2.6745    5.4539    4.2843 H         1 <0>         0.0760
     44 H2         -4.3663    4.9378    4.0845 H         1 <0>         0.0745
     45 H3         -3.1029    3.7324    4.4295 H         1 <0>         0.0596
     46 H4         -4.5786    5.9146    1.8703 H         1 <0>         0.1332
     47 H5         -4.2040    5.6185   -0.5443 H         1 <0>         0.1327
     48 H6         -2.5115    4.0203   -1.3439 H         1 <0>         0.1336
     49 H7         -1.9065    0.4774    6.6550 H         1 <0>         0.1317
     50 H8         -2.8522   -1.5767    7.5512 H         1 <0>         0.1357
     51 H9         -3.6196   -3.9016    7.1946 H         1 <0>         0.1305
     52 H10        -3.9707   -5.7823    5.6878 H         1 <0>         0.1273
     53 H11        -3.3812   -5.6174    3.3076 H         1 <0>         0.1278
     54 H12        -2.4323   -3.5677    2.3959 H         1 <0>         0.1302
     55 H13        -1.6724   -1.2345    2.7448 H         1 <0>         0.1330
     56 H14         1.1329    0.4755    2.9199 H         1 <0>         0.1525
     57 H15         3.3374    1.2571    3.7445 H         1 <0>         0.1807
     58 H16         0.7016    3.4213    7.7767 H         1 <0>         0.4255
     59 H17         3.5820    3.8806    5.8180 H         1 <0>         0.1461
     60 H18         5.7960    4.5402    6.6655 H         1 <0>         0.1252
     61 H19         4.4342    3.9571   10.6766 H         1 <0>         0.1263
     62 H20         2.2173    3.3068    9.8293 H         1 <0>         0.1305
     63 H21         6.9326    5.5560   11.0664 H         1 <0>         0.0866
     64 H22         6.0498    4.0086   11.1516 H         1 <0>         0.1256
     65 H23         8.4710    3.8042   11.8260 H         1 <0>         0.1402
     66 H24         8.0435    2.7826   10.4323 H         1 <0>         0.1322
     67 H25         9.6499    4.8258    7.9523 H         1 <0>         0.1407
     68 H26         8.7017    3.3530    8.2695 H         1 <0>         0.1322
     69 H27         7.2360    5.0250    7.2626 H         1 <0>         0.1270
     70 H28         7.7201    6.2309    8.4844 H         1 <0>         0.0865
     71 H29        10.4253    2.7774    9.9033 H         1 <0>         0.1215
     72 H30        11.2554    4.3219    9.5973 H         1 <0>         0.1249
     73 H31        10.7556    3.8925   11.2508 H         1 <0>         0.1248
     74 H32         0.0643    2.9442    0.0323 H         1 <0>         0.0776
     75 H33        -0.8025    1.6188    0.8450 H         1 <0>         0.0578
     76 H34        -1.1995    2.0419   -0.8377 H         1 <0>         0.0754
     77 H35         9.2570    5.4474   10.2476 H         1 <0>         0.4245
@<TRIPOS>BOND
     1    1    2 1
     2    1   43 1
     3    1   44 1
     4    1   45 1
     5    2    7 ar
     6    2    3 ar
     7    3    4 ar
     8    3   46 1
     9    4    5 ar
    10    4   47 1
    11    5    6 ar
    12    5   48 1
    13    6    7 ar
    14    6   42 1
    15    7    8 1
    16    8    9 1
    17    9   10 2
    18    9   11 am
    19   11   12 1
    20   11   22 1
    21   12   21 ar
    22   12   13 ar
    23   13   14 ar
    24   13   49 1
    25   14   15 ar
    26   14   50 1
    27   15   20 ar
    28   15   16 ar
    29   16   17 ar
    30   16   51 1
    31   17   18 ar
    32   17   52 1
    33   18   19 ar
    34   18   53 1
    35   19   20 ar
    36   19   54 1
    37   20   21 ar
    38   21   55 1
    39   22   27 ar
    40   22   23 ar
    41   23   24 ar
    42   23   56 1
    43   24   25 ar
    44   24   57 1
    45   25   26 ar
    46   26   27 ar
    47   26   28 1
    48   28   29 1
    49   28   58 1
    50   29   34 ar
    51   29   30 ar
    52   30   31 ar
    53   30   59 1
    54   31   32 ar
    55   31   60 1
    56   32   33 ar
    57   32   35 1
    58   33   34 ar
    59   33   61 1
    60   34   62 1
    61   35   40 1
    62   35   36 1
    63   36   37 1
    64   36   63 1
    65   36   64 1
    66   37   38 1
    67   37   65 1
    68   37   66 1
    69   38   39 1
    70   38   41 1
    71   38   77 1
    72   39   40 1
    73   39   67 1
    74   39   68 1
    75   40   69 1
    76   40   70 1
    77   41   71 1
    78   41   72 1
    79   41   73 1
    80   42   74 1
    81   42   75 1
    82   42   76 1
@<TRIPOS>MOLECULE
CHEMBL377481__1
   76    81     0     0     0
SMALL
USER_CHARGES

@<TRIPOS>ATOM
      1 C1         -3.3418    4.6491    3.9074 C.3       1 <0>        -0.1123
      2 C2         -3.1131    4.4665    2.4291 C.ar      1 <0>        -0.0726
      3 C3         -3.8577    5.1922    1.5195 C.ar      1 <0>        -0.1159
      4 C4         -3.6483    5.0250    0.1631 C.ar      1 <0>        -0.1000
      5 C5         -2.6937    4.1316   -0.2866 C.ar      1 <0>        -0.1161
      6 C6         -1.9465    3.4035    0.6190 C.ar      1 <0>        -0.0748
      7 C7         -2.1507    3.5736    1.9806 C.ar      1 <0>         0.0908
      8 O1         -1.4126    2.8628    2.8737 O.3       1 <0>        -0.2901
      9 C8         -1.8825    1.6648    3.2709 C.2       1 <0>         0.6595
     10 O2         -2.9368    1.2499    2.8321 O.2       1 <0>        -0.5204
     11 N1         -1.1833    0.9262    4.1552 N.am      1 <0>        -0.4973
     12 C9         -1.7199   -0.2698    4.6477 C.ar      1 <0>         0.1434
     13 C10        -2.0544   -0.3726    6.0031 C.ar      1 <0>        -0.1064
     14 C11        -2.5765   -1.5212    6.5086 C.ar      1 <0>        -0.0931
     15 C12        -2.7871   -2.6260    5.6650 C.ar      1 <0>        -0.0452
     16 C13        -3.3259   -3.8260    6.1596 C.ar      1 <0>        -0.1066
     17 C14        -3.5177   -4.8770    5.3164 C.ar      1 <0>        -0.1099
     18 C15        -3.1873   -4.7832    3.9656 C.ar      1 <0>        -0.1140
     19 C16        -2.6637   -3.6374    3.4508 C.ar      1 <0>        -0.0999
     20 C17        -2.4516   -2.5304    4.2911 C.ar      1 <0>        -0.0449
     21 C18        -1.9184   -1.3305    3.7926 C.ar      1 <0>        -0.0726
     22 C19         0.0719    1.3520    4.5788 C.ar      1 <0>         0.4369
     23 C20         1.2112    1.0499    3.8316 C.ar      1 <0>        -0.2623
     24 C21         2.4371    1.4931    4.2903 C.ar      1 <0>         0.2043
     25 N2          2.4950    2.1867    5.4174 N.ar      1 <0>        -0.5479
     26 C22         1.3964    2.4588    6.1062 C.ar      1 <0>         0.5811
     27 N3          0.2023    2.0566    5.6972 N.ar      1 <0>        -0.5629
     28 N4          1.4984    3.1862    7.2802 N.pl3     1 <0>        -0.6307
     29 C23         2.7580    3.5663    7.7616 C.ar      1 <0>         0.0951
     30 C24         3.7642    3.9179    6.8716 C.ar      1 <0>        -0.0579
     31 C25         5.0055    4.2929    7.3459 C.ar      1 <0>        -0.1825
     32 C26         5.2477    4.3184    8.7132 C.ar      1 <0>         0.2105
     33 C27         4.2413    3.9668    9.6032 C.ar      1 <0>        -0.1816
     34 C28         2.9984    3.5969    9.1289 C.ar      1 <0>        -0.0909
     35 N5          6.5060    4.6981    9.1940 N.pl3     1 <0>        -0.6318
     36 C29         6.8297    4.5952   10.6251 C.3       1 <0>         0.1267
     37 C30         8.1510    3.8330   10.7716 C.3       1 <0>         0.0384
     38 N6          9.1801    4.4802    9.9469 N.3       1 <0>        -0.5426
     39 C31         8.8329    4.4242    8.5206 C.3       1 <0>         0.0380
     40 C32         7.5416    5.2048    8.2809 C.3       1 <0>         0.1259
     41 C33        10.5011    3.8858   10.1910 C.3       1 <0>         0.0243
     42 C34        -0.9062    2.4299    0.1283 C.3       1 <0>        -0.1120
     43 H1         -2.6941    5.4426    4.2800 H         1 <0>         0.0773
     44 H2         -4.3834    4.9176    4.0834 H         1 <0>         0.0735
     45 H3         -3.1134    3.7191    4.4280 H         1 <0>         0.0605
     46 H4         -4.6042    5.8904    1.8682 H         1 <0>         0.1323
     47 H5         -4.2317    5.5931   -0.5465 H         1 <0>         0.1312
     48 H6         -2.5323    4.0025   -1.3466 H         1 <0>         0.1325
     49 H7         -1.8950    0.4725    6.6564 H         1 <0>         0.1333
     50 H8         -2.8288   -1.5852    7.5568 H         1 <0>         0.1357
     51 H9         -3.5861   -3.9140    7.2041 H         1 <0>         0.1298
     52 H10        -3.9319   -5.7978    5.6998 H         1 <0>         0.1258
     53 H11        -3.3489   -5.6323    3.3181 H         1 <0>         0.1263
     54 H12        -2.4119   -3.5790    2.4022 H         1 <0>         0.1294
     55 H13        -1.6622   -1.2419    2.7472 H         1 <0>         0.1328
     56 H14         1.1365    0.4823    2.9159 H         1 <0>         0.1488
     57 H15         3.3383    1.2761    3.7361 H         1 <0>         0.1789
     58 H16         0.6978    3.4326    7.7692 H         1 <0>         0.4216
     59 H17         3.5760    3.8977    5.8083 H         1 <0>         0.1392
     60 H18         5.7882    4.5661    6.6537 H         1 <0>         0.1246
     61 H19         4.4295    3.9866   10.6665 H         1 <0>         0.1254
     62 H20         2.2144    3.3277    9.8212 H         1 <0>         0.1231
     63 H21         6.9340    5.5937   11.0496 H         1 <0>         0.0696
     64 H22         6.0364    4.0555   11.1421 H         1 <0>         0.0859
     65 H23         8.4627    3.8429   11.8161 H         1 <0>         0.0855
     66 H24         8.0153    2.8030   10.4418 H         1 <0>         0.0384
     67 H25         9.6391    4.8627    7.9325 H         1 <0>         0.0859
     68 H26         8.6877    3.3859    8.2221 H         1 <0>         0.0382
     69 H27         7.2187    5.0679    7.2489 H         1 <0>         0.0873
     70 H28         7.7156    6.2631    8.4758 H         1 <0>         0.0695
     71 H29        10.4728    2.8242    9.9452 H         1 <0>         0.0257
     72 H30        11.2441    4.3834    9.5678 H         1 <0>         0.0703
     73 H31        10.7664    4.0087   11.2410 H         1 <0>         0.0705
     74 H32         0.0510    2.9413    0.0271 H         1 <0>         0.0785
     75 H33        -0.8077    1.6126    0.8428 H         1 <0>         0.0587
     76 H34        -1.2094    2.0315   -0.8399 H         1 <0>         0.0742
@<TRIPOS>BOND
     1    1    2 1
     2    1   43 1
     3    1   44 1
     4    1   45 1
     5    2    7 ar
     6    2    3 ar
     7    3    4 ar
     8    3   46 1
     9    4    5 ar
    10    4   47 1
    11    5    6 ar
    12    5   48 1
    13    6    7 ar
    14    6   42 1
    15    7    8 1
    16    8    9 1
    17    9   10 2
    18    9   11 am
    19   11   12 1
    20   11   22 1
    21   12   21 ar
    22   12   13 ar
    23   13   14 ar
    24   13   49 1
    25   14   15 ar
    26   14   50 1
    27   15   20 ar
    28   15   16 ar
    29   16   17 ar
    30   16   51 1
    31   17   18 ar
    32   17   52 1
    33   18   19 ar
    34   18   53 1
    35   19   20 ar
    36   19   54 1
    37   20   21 ar
    38   21   55 1
    39   22   27 ar
    40   22   23 ar
    41   23   24 ar
    42   23   56 1
    43   24   25 ar
    44   24   57 1
    45   25   26 ar
    46   26   27 ar
    47   26   28 1
    48   28   29 1
    49   28   58 1
    50   29   34 ar
    51   29   30 ar
    52   30   31 ar
    53   30   59 1
    54   31   32 ar
    55   31   60 1
    56   32   33 ar
    57   32   35 1
    58   33   34 ar
    59   33   61 1
    60   34   62 1
    61   35   40 1
    62   35   36 1
    63   36   37 1
    64   36   63 1
    65   36   64 1
    66   37   38 1
    67   37   65 1
    68   37   66 1
    69   38   39 1
    70   38   41 1
    71   39   40 1
    72   39   67 1
    73   39   68 1
    74   40   69 1
    75   40   70 1
    76   41   71 1
    77   41   72 1
    78   41   73 1
    79   42   74 1
    80   42   75 1
    81   42   76 1
@<TRIPOS>MOLECULE
CHEMBL209908
   81    86     0     0     0
SMALL
USER_CHARGES

@<TRIPOS>ATOM
      1 C1         -0.0727    1.1183   -0.0300 C.3       1 <0>        -0.1116
      2 C2         -0.2504   -0.3754    0.0612 C.ar      1 <0>        -0.0731
      3 C3         -0.3771   -1.1281   -1.0902 C.ar      1 <0>        -0.1151
      4 C4         -0.5406   -2.4985   -1.0072 C.ar      1 <0>        -0.0979
      5 C5         -0.5777   -3.1191    0.2278 C.ar      1 <0>        -0.1152
      6 C6         -0.4514   -2.3708    1.3822 C.ar      1 <0>        -0.0749
      7 C7         -0.2810   -0.9964    1.3013 C.ar      1 <0>         0.0882
      8 O1         -0.1504   -0.2587    2.4355 O.3       1 <0>        -0.2918
      9 C8         -1.2693    0.2278    3.0057 C.2       1 <0>         0.6578
     10 O2         -2.3534    0.0026    2.5053 O.2       1 <0>        -0.5148
     11 N1         -1.1866    0.9645    4.1312 N.am      1 <0>        -0.4985
     12 C9         -2.3366    1.5573    4.6659 C.ar      1 <0>         0.1365
     13 C10        -3.3559    0.7607    5.1732 C.ar      1 <0>        -0.0863
     14 C11        -4.4896    1.3422    5.6999 C.ar      1 <0>        -0.1006
     15 C12        -4.6126    2.7305    5.7236 C.ar      1 <0>        -0.0275
     16 C13        -3.5886    3.5276    5.2146 C.ar      1 <0>        -0.1028
     17 C14        -2.4545    2.9416    4.6937 C.ar      1 <0>        -0.1007
     18 C15        -5.8317    3.3587    6.2893 C.ar      1 <0>        -0.0539
     19 C16        -6.8541    2.5633    6.8034 C.ar      1 <0>        -0.1066
     20 C17        -7.9860    3.1531    7.3284 C.ar      1 <0>        -0.1168
     21 C18        -8.1068    4.5310    7.3449 C.ar      1 <0>        -0.1133
     22 C19        -7.0953    5.3253    6.8356 C.ar      1 <0>        -0.1178
     23 C20        -5.9563    4.7465    6.3138 C.ar      1 <0>        -0.1078
     24 C21         0.0419    1.1358    4.7619 C.ar      1 <0>         0.4423
     25 C22         0.5105    0.1847    5.6692 C.ar      1 <0>        -0.2535
     26 C23         1.7360    0.3960    6.2719 C.ar      1 <0>         0.2027
     27 N2          2.4253    1.4870    5.9732 N.ar      1 <0>        -0.5532
     28 C24         1.9554    2.3732    5.1077 C.ar      1 <0>         0.5777
     29 N3          0.7879    2.2043    4.5048 N.ar      1 <0>        -0.5579
     30 N4          2.7058    3.5015    4.8221 N.pl3     1 <0>        -0.6367
     31 C25         3.9140    3.7278    5.4942 C.ar      1 <0>         0.1308
     32 C26         4.7349    2.6580    5.8260 C.ar      1 <0>        -0.0644
     33 C27         5.9257    2.8810    6.4883 C.ar      1 <0>        -0.1648
     34 C28         6.3025    4.1751    6.8227 C.ar      1 <0>         0.1794
     35 C29         5.4815    5.2449    6.4909 C.ar      1 <0>        -0.1634
     36 C30         4.2934    5.0223    5.8235 C.ar      1 <0>        -0.0982
     37 N5          7.5092    4.4011    7.4945 N.pl3     1 <0>        -0.6456
     38 C31         7.8619    5.7422    7.9856 C.3       1 <0>         0.1007
     39 C32         8.2747    5.6277    9.4568 C.3       1 <0>        -0.0233
     40 N6          9.3470    4.6332    9.5873 N.4       1 <0>        -0.3837
     41 C33         8.8453    3.3048    9.2133 C.3       1 <0>        -0.0233
     42 C34         8.4582    3.3031    7.7350 C.3       1 <0>         0.0993
     43 C35         9.8177    4.6030   10.9785 C.3       1 <0>        -0.0471
     44 C36        -0.4929   -3.0477    2.7280 C.3       1 <0>        -0.1116
     45 H1          0.9897    1.3550   -0.0886 H         1 <0>         0.0760
     46 H2         -0.5776    1.4905   -0.9215 H         1 <0>         0.0745
     47 H3         -0.5017    1.5899    0.8541 H         1 <0>         0.0595
     48 H4         -0.3488   -0.6456   -2.0561 H         1 <0>         0.1332
     49 H5         -0.6399   -3.0852   -1.9085 H         1 <0>         0.1327
     50 H6         -0.7059   -4.1896    0.2901 H         1 <0>         0.1336
     51 H7         -3.2600   -0.3149    5.1546 H         1 <0>         0.1307
     52 H8         -5.2818    0.7226    6.0934 H         1 <0>         0.1365
     53 H9         -3.6819    4.6034    5.2315 H         1 <0>         0.1343
     54 H10        -1.6591    3.5588    4.3028 H         1 <0>         0.1334
     55 H11        -6.7609    1.4874    6.7907 H         1 <0>         0.1267
     56 H12        -8.7791    2.5377    7.7268 H         1 <0>         0.1268
     57 H13        -8.9943    4.9883    7.7568 H         1 <0>         0.1251
     58 H14        -7.1951    6.4006    6.8507 H         1 <0>         0.1259
     59 H15        -5.1651    5.3678    5.9208 H         1 <0>         0.1250
     60 H16        -0.0717   -0.6964    5.8956 H         1 <0>         0.1527
     61 H17         2.1273   -0.3204    6.9790 H         1 <0>         0.1807
     62 H18         2.3949    4.1351    4.1567 H         1 <0>         0.4255
     63 H19         4.4417    1.6515    5.5662 H         1 <0>         0.1461
     64 H20         6.5639    2.0489    6.7467 H         1 <0>         0.1252
     65 H21         5.7743    6.2514    6.7512 H         1 <0>         0.1263
     66 H22         3.6573    5.8547    5.5612 H         1 <0>         0.1305
     67 H23         8.6925    6.1393    7.4020 H         1 <0>         0.0867
     68 H24         6.9995    6.4030    7.8975 H         1 <0>         0.1256
     69 H25         8.6312    6.5951    9.8106 H         1 <0>         0.1402
     70 H26         7.4161    5.3168   10.0520 H         1 <0>         0.1322
     71 H27         9.6222    2.5605    9.3877 H         1 <0>         0.1406
     72 H28         7.9694    3.0642    9.8159 H         1 <0>         0.1322
     73 H29         7.9899    2.3521    7.4813 H         1 <0>         0.1270
     74 H30         9.3500    3.4496    7.1257 H         1 <0>         0.0865
     75 H31         8.9907    4.3351   11.6362 H         1 <0>         0.1215
     76 H32        10.6138    3.8650   11.0768 H         1 <0>         0.1250
     77 H33        10.1978    5.5864   11.2549 H         1 <0>         0.1248
     78 H34         0.5167   -3.3351    3.0214 H         1 <0>         0.0775
     79 H35        -0.9046   -2.3609    3.4676 H         1 <0>         0.0579
     80 H36        -1.1209   -3.9366    2.6684 H         1 <0>         0.0754
     81 H37        10.1132    4.8849    8.9810 H         1 <0>         0.4245
@<TRIPOS>BOND
     1    1    2 1
     2    1   45 1
     3    1   46 1
     4    1   47 1
     5    2    7 ar
     6    2    3 ar
     7    3    4 ar
     8    3   48 1
     9    4    5 ar
    10    4   49 1
    11    5    6 ar
    12    5   50 1
    13    6    7 ar
    14    6   44 1
    15    7    8 1
    16    8    9 1
    17    9   10 2
    18    9   11 am
    19   11   12 1
    20   11   24 1
    21   12   17 ar
    22   12   13 ar
    23   13   14 ar
    24   13   51 1
    25   14   15 ar
    26   14   52 1
    27   15   16 ar
    28   15   18 1
    29   16   17 ar
    30   16   53 1
    31   17   54 1
    32   18   23 ar
    33   18   19 ar
    34   19   20 ar
    35   19   55 1
    36   20   21 ar
    37   20   56 1
    38   21   22 ar
    39   21   57 1
    40   22   23 ar
    41   22   58 1
    42   23   59 1
    43   24   29 ar
    44   24   25 ar
    45   25   26 ar
    46   25   60 1
    47   26   27 ar
    48   26   61 1
    49   27   28 ar
    50   28   29 ar
    51   28   30 1
    52   30   31 1
    53   30   62 1
    54   31   36 ar
    55   31   32 ar
    56   32   33 ar
    57   32   63 1
    58   33   34 ar
    59   33   64 1
    60   34   35 ar
    61   34   37 1
    62   35   36 ar
    63   35   65 1
    64   36   66 1
    65   37   42 1
    66   37   38 1
    67   38   39 1
    68   38   67 1
    69   38   68 1
    70   39   40 1
    71   39   69 1
    72   39   70 1
    73   40   41 1
    74   40   43 1
    75   40   81 1
    76   41   42 1
    77   41   71 1
    78   41   72 1
    79   42   73 1
    80   42   74 1
    81   43   75 1
    82   43   76 1
    83   43   77 1
    84   44   78 1
    85   44   79 1
    86   44   80 1
@<TRIPOS>MOLECULE
CHEMBL209908__1
   80    85     0     0     0
SMALL
USER_CHARGES

@<TRIPOS>ATOM
      1 C1         -0.0942    1.1196   -0.0307 C.3       1 <0>        -0.1122
      2 C2         -0.2732   -0.3740    0.0600 C.ar      1 <0>        -0.0727
      3 C3         -0.4068   -1.1254   -1.0914 C.ar      1 <0>        -0.1159
      4 C4         -0.5716   -2.4957   -1.0088 C.ar      1 <0>        -0.1000
      5 C5         -0.6032   -3.1174    0.2258 C.ar      1 <0>        -0.1161
      6 C6         -0.4701   -2.3704    1.3802 C.ar      1 <0>        -0.0747
      7 C7         -0.2984   -0.9961    1.2997 C.ar      1 <0>         0.0909
      8 O1         -0.1611   -0.2596    2.4339 O.3       1 <0>        -0.2904
      9 C8         -1.2765    0.2277    3.0102 C.2       1 <0>         0.6599
     10 O2         -2.3634    0.0043    2.5152 O.2       1 <0>        -0.5201
     11 N1         -1.1871    0.9632    4.1360 N.am      1 <0>        -0.4969
     12 C9         -2.3337    1.5570    4.6771 C.ar      1 <0>         0.1413
     13 C10        -3.3518    0.7611    5.1877 C.ar      1 <0>        -0.0874
     14 C11        -4.4821    1.3436    5.7207 C.ar      1 <0>        -0.1008
     15 C12        -4.6028    2.7321    5.7474 C.ar      1 <0>        -0.0319
     16 C13        -3.5799    3.5284    5.2349 C.ar      1 <0>        -0.1018
     17 C14        -2.4492    2.9414    4.7078 C.ar      1 <0>        -0.1003
     18 C15        -5.8182    3.3613    6.3198 C.ar      1 <0>        -0.0501
     19 C16        -6.8395    2.5667    6.8373 C.ar      1 <0>        -0.1077
     20 C17        -7.9680    3.1574    7.3686 C.ar      1 <0>        -0.1175
     21 C18        -8.0864    4.5355    7.3881 C.ar      1 <0>        -0.1157
     22 C19        -7.0760    5.3290    6.8754 C.ar      1 <0>        -0.1177
     23 C20        -5.9404    4.7492    6.3473 C.ar      1 <0>        -0.1081
     24 C21         0.0447    1.1324    4.7606 C.ar      1 <0>         0.4363
     25 C22         0.5168    0.1797    5.6645 C.ar      1 <0>        -0.2621
     26 C23         1.7456    0.3889    6.2612 C.ar      1 <0>         0.2043
     27 N2          2.4347    1.4794    5.9602 N.ar      1 <0>        -0.5479
     28 C24         1.9615    2.3672    5.0980 C.ar      1 <0>         0.5812
     29 N3          0.7907    2.2003    4.5009 N.ar      1 <0>        -0.5634
     30 N4          2.7117    3.4949    4.8099 N.pl3     1 <0>        -0.6306
     31 C25         3.9224    3.7202    5.4778 C.ar      1 <0>         0.0950
     32 C26         4.7432    2.6497    5.8075 C.ar      1 <0>        -0.0578
     33 C27         5.9364    2.8718    6.4658 C.ar      1 <0>        -0.1825
     34 C28         6.3158    4.1657    6.7981 C.ar      1 <0>         0.2106
     35 C29         5.4950    5.2362    6.4683 C.ar      1 <0>        -0.1816
     36 C30         4.3044    5.0146    5.8050 C.ar      1 <0>        -0.0909
     37 N5          7.5250    4.3908    7.4657 N.pl3     1 <0>        -0.6318
     38 C31         7.8795    5.7321    7.9539 C.3       1 <0>         0.1267
     39 C32         8.2791    5.6233    9.4293 C.3       1 <0>         0.0384
     40 N6          9.3335    4.6107    9.5743 N.3       1 <0>        -0.5426
     41 C33         8.8512    3.2795    9.1831 C.3       1 <0>         0.0380
     42 C34         8.4724    3.2910    7.7031 C.3       1 <0>         0.1259
     43 C35         9.8650    4.5967   10.9437 C.3       1 <0>         0.0243
     44 C36        -0.5056   -3.0485    2.7255 C.3       1 <0>        -0.1120
     45 H1          0.9682    1.3549   -0.0945 H         1 <0>         0.0772
     46 H2         -0.6031    1.4932   -0.9192 H         1 <0>         0.0735
     47 H3         -0.5181    1.5909    0.8560 H         1 <0>         0.0605
     48 H4         -0.3828   -0.6421   -2.0569 H         1 <0>         0.1322
     49 H5         -0.6762   -3.0814   -1.9102 H         1 <0>         0.1312
     50 H6         -0.7324   -4.1879    0.2877 H         1 <0>         0.1325
     51 H7         -3.2579   -0.3146    5.1668 H         1 <0>         0.1303
     52 H8         -5.2735    0.7246    6.1168 H         1 <0>         0.1352
     53 H9         -3.6713    4.6043    5.2542 H         1 <0>         0.1340
     54 H10        -1.6546    3.5580    4.3143 H         1 <0>         0.1349
     55 H11        -6.7482    1.4907    6.8223 H         1 <0>         0.1264
     56 H12        -8.7602    2.5426    7.7696 H         1 <0>         0.1256
     57 H13        -8.9712    4.9935    7.8048 H         1 <0>         0.1239
     58 H14        -7.1739    6.4045    6.8929 H         1 <0>         0.1253
     59 H15        -5.1500    5.3699    5.9517 H         1 <0>         0.1257
     60 H16        -0.0652   -0.7010    5.8928 H         1 <0>         0.1490
     61 H17         2.1397   -0.3288    6.9655 H         1 <0>         0.1789
     62 H18         2.3990    4.1288    4.1456 H         1 <0>         0.4216
     63 H19         4.4479    1.6435    5.5494 H         1 <0>         0.1391
     64 H20         6.5745    2.0391    6.7226 H         1 <0>         0.1246
     65 H21         5.7898    6.2425    6.7270 H         1 <0>         0.1254
     66 H22         3.6683    5.8475    5.5442 H         1 <0>         0.1231
     67 H23         8.7169    6.1228    7.3756 H         1 <0>         0.0697
     68 H24         7.0210    6.3964    7.8551 H         1 <0>         0.0859
     69 H25         8.6500    6.5872    9.7777 H         1 <0>         0.0855
     70 H26         7.4111    5.3318   10.0206 H         1 <0>         0.0384
     71 H27         9.6371    2.5435    9.3530 H         1 <0>         0.0859
     72 H28         7.9752    3.0206    9.7779 H         1 <0>         0.0382
     73 H29         8.0056    2.3422    7.4385 H         1 <0>         0.0873
     74 H30         9.3678    3.4425    7.1002 H         1 <0>         0.0695
     75 H31         9.0612    4.3669   11.6431 H         1 <0>         0.0258
     76 H32        10.6438    3.8383   11.0234 H         1 <0>         0.0703
     77 H33        10.2845    5.5745   11.1807 H         1 <0>         0.0705
     78 H34         0.5052   -3.3375    3.0135 H         1 <0>         0.0784
     79 H35        -0.9126   -2.3619    3.4678 H         1 <0>         0.0588
     80 H36        -1.1350   -3.9365    2.6683 H         1 <0>         0.0742
@<TRIPOS>BOND
     1    1    2 1
     2    1   45 1
     3    1   46 1
     4    1   47 1
     5    2    7 ar
     6    2    3 ar
     7    3    4 ar
     8    3   48 1
     9    4    5 ar
    10    4   49 1
    11    5    6 ar
    12    5   50 1
    13    6    7 ar
    14    6   44 1
    15    7    8 1
    16    8    9 1
    17    9   10 2
    18    9   11 am
    19   11   12 1
    20   11   24 1
    21   12   17 ar
    22   12   13 ar
    23   13   14 ar
    24   13   51 1
    25   14   15 ar
    26   14   52 1
    27   15   16 ar
    28   15   18 1
    29   16   17 ar
    30   16   53 1
    31   17   54 1
    32   18   23 ar
    33   18   19 ar
    34   19   20 ar
    35   19   55 1
    36   20   21 ar
    37   20   56 1
    38   21   22 ar
    39   21   57 1
    40   22   23 ar
    41   22   58 1
    42   23   59 1
    43   24   29 ar
    44   24   25 ar
    45   25   26 ar
    46   25   60 1
    47   26   27 ar
    48   26   61 1
    49   27   28 ar
    50   28   29 ar
    51   28   30 1
    52   30   31 1
    53   30   62 1
    54   31   36 ar
    55   31   32 ar
    56   32   33 ar
    57   32   63 1
    58   33   34 ar
    59   33   64 1
    60   34   35 ar
    61   34   37 1
    62   35   36 ar
    63   35   65 1
    64   36   66 1
    65   37   42 1
    66   37   38 1
    67   38   39 1
    68   38   67 1
    69   38   68 1
    70   39   40 1
    71   39   69 1
    72   39   70 1
    73   40   41 1
    74   40   43 1
    75   41   42 1
    76   41   71 1
    77   41   72 1
    78   42   73 1
    79   42   74 1
    80   43   75 1
    81   43   76 1
    82   43   77 1
    83   44   78 1
    84   44   79 1
    85   44   80 1
@<TRIPOS>MOLECULE
CHEMBL84846
   60    64     0     0     0
SMALL
USER_CHARGES

@<TRIPOS>ATOM
      1 C1         -1.4166    1.1771    0.2225 C.3       1 <0>        -0.1167
      2 C2         -0.7170   -0.1517    0.0958 C.ar      1 <0>        -0.0852
      3 C3         -0.7321   -0.8289   -1.1083 C.ar      1 <0>        -0.1057
      4 C4         -0.0903   -2.0478   -1.2262 C.ar      1 <0>        -0.1073
      5 C5          0.5690   -2.5937   -0.1399 C.ar      1 <0>        -0.1069
      6 C6          0.5881   -1.9218    1.0674 C.ar      1 <0>        -0.0244
      7 C7         -0.0520   -0.6936    1.1872 C.ar      1 <0>         0.1452
      8 N1         -0.0304   -0.0078    2.4064 N.am      1 <0>        -0.6720
      9 C8         -0.4049   -0.6349    3.5391 C.2       1 <0>         0.5611
     10 O1         -0.6645   -1.8228    3.5191 O.2       1 <0>        -0.4968
     11 C9         -0.4999    0.1194    4.8025 C.ar      1 <0>        -0.1298
     12 C10        -0.2087    1.4905    4.8364 C.ar      1 <0>        -0.0720
     13 C11        -0.2896    2.2028    5.9868 C.ar      1 <0>        -0.0748
     14 C12        -0.6733    1.5857    7.2037 C.ar      1 <0>         0.1440
     15 C13        -0.9628    0.2004    7.1437 C.ar      1 <0>        -0.1705
     16 C14        -0.8876   -0.5211    5.9845 C.ar      1 <0>         0.0145
     17 S1         -1.3881   -0.1707    8.8285 S.3       1 <0>         0.0197
     18 C15        -1.1633    1.4767    9.4840 C.2       1 <0>         0.3920
     19 N2         -0.7976    2.1550    8.4182 N.2       1 <0>        -0.5084
     20 N3         -1.3305    1.9236   10.7796 N.pl3     1 <0>        -0.5880
     21 C16        -1.2094    3.2758   11.0685 C.ar      1 <0>         0.4168
     22 C17        -1.4865    3.7548   12.3502 C.ar      1 <0>        -0.2661
     23 C18        -1.3513    5.1087   12.5876 C.ar      1 <0>         0.2157
     24 N4         -0.9659    5.9031   11.5989 N.ar      1 <0>        -0.5209
     25 C19        -0.7117    5.4199   10.3996 C.ar      1 <0>         0.3581
     26 N5         -0.8224    4.1347   10.1304 N.ar      1 <0>        -0.5112
     27 C20        -0.2764    6.3623    9.3072 C.3       1 <0>        -0.0842
     28 C21        -1.6389    5.6760   13.9538 C.3       1 <0>         0.1035
     29 N6         -0.3869    5.7764   14.7157 N.3       1 <0>        -0.5272
     30 C22         0.1614    4.4436   15.0060 C.3       1 <0>         0.0127
     31 C23         1.4925    4.5957   15.7470 C.3       1 <0>         0.0642
     32 O2          1.2863    5.3666   16.9338 O.3       1 <0>        -0.3839
     33 C24         0.7535    6.6708   16.6879 C.3       1 <0>         0.0628
     34 C25        -0.5851    6.5397   15.9564 C.3       1 <0>         0.0196
     35 Cl1         1.4152   -2.6077    2.4309 Cl        1 <0>        -0.0446
     36 H1         -0.7235    1.9785   -0.0332 H         1 <0>         0.0759
     37 H2         -2.2698    1.2046   -0.4552 H         1 <0>         0.0749
     38 H3         -1.7625    1.3092    1.2477 H         1 <0>         0.0684
     39 H4         -1.2463   -0.4057   -1.9586 H         1 <0>         0.1336
     40 H5         -0.1042   -2.5750   -2.1687 H         1 <0>         0.1348
     41 H6          1.0690   -3.5462   -0.2353 H         1 <0>         0.1366
     42 H7          0.2541    0.9191    2.4365 H         1 <0>         0.4112
     43 H8          0.0871    1.9901    3.9257 H         1 <0>         0.1344
     44 H9         -0.0576    3.2576    5.9761 H         1 <0>         0.1414
     45 H10        -1.1212   -1.5755    5.9821 H         1 <0>         0.1470
     46 H11        -1.5325    1.2925   11.4880 H         1 <0>         0.4423
     47 H12        -1.7992    3.0835   13.1364 H         1 <0>         0.1460
     48 H13         0.8105    6.4447    9.3103 H         1 <0>         0.0880
     49 H14        -0.6090    5.9788    8.3426 H         1 <0>         0.0879
     50 H15        -0.7158    7.3450    9.4787 H         1 <0>         0.0879
     51 H16        -2.0815    6.6667   13.8500 H         1 <0>         0.1037
     52 H17        -2.3332    5.0212   14.4803 H         1 <0>         0.0601
     53 H18        -0.5405    3.8890   15.6288 H         1 <0>         0.0475
     54 H19         0.3242    3.9057   14.0721 H         1 <0>         0.0835
     55 H20         1.8747    3.6106   16.0147 H         1 <0>         0.0993
     56 H21         2.2113    5.1032   15.1037 H         1 <0>         0.0601
     57 H22         0.6011    7.1865   17.6360 H         1 <0>         0.1017
     58 H23         1.4508    7.2386   16.0719 H         1 <0>         0.0620
     59 H24        -0.9673    7.5319   15.7163 H         1 <0>         0.0919
     60 H25        -1.2989    6.0186   16.5943 H         1 <0>         0.0472
@<TRIPOS>BOND
     1    1    2 1
     2    1   36 1
     3    1   37 1
     4    1   38 1
     5    2    7 ar
     6    2    3 ar
     7    3    4 ar
     8    3   39 1
     9    4    5 ar
    10    4   40 1
    11    5    6 ar
    12    5   41 1
    13    6    7 ar
    14    6   35 1
    15    7    8 1
    16    8    9 am
    17    8   42 1
    18    9   10 2
    19    9   11 1
    20   11   16 ar
    21   11   12 ar
    22   12   13 ar
    23   12   43 1
    24   13   14 ar
    25   13   44 1
    26   14   19 1
    27   14   15 ar
    28   15   16 ar
    29   15   17 1
    30   16   45 1
    31   17   18 1
    32   18   19 2
    33   18   20 1
    34   20   21 1
    35   20   46 1
    36   21   26 ar
    37   21   22 ar
    38   22   23 ar
    39   22   47 1
    40   23   24 ar
    41   23   28 1
    42   24   25 ar
    43   25   26 ar
    44   25   27 1
    45   27   48 1
    46   27   49 1
    47   27   50 1
    48   28   29 1
    49   28   51 1
    50   28   52 1
    51   29   34 1
    52   29   30 1
    53   30   31 1
    54   30   53 1
    55   30   54 1
    56   31   32 1
    57   31   55 1
    58   31   56 1
    59   32   33 1
    60   33   34 1
    61   33   57 1
    62   33   58 1
    63   34   59 1
    64   34   60 1
@<TRIPOS>MOLECULE
CHEMBL1085316
   77    82     0     0     0
SMALL
USER_CHARGES

@<TRIPOS>ATOM
      1 C1         -1.2893    1.3387   -0.0369 C.3       1 <0>        -0.0469
      2 N1         -0.9820   -0.0978   -0.0303 N.4       1 <0>        -0.3835
      3 C2         -2.2330   -0.8644   -0.0882 C.3       1 <0>        -0.0236
      4 C3         -1.9107   -2.3585   -0.1968 C.3       1 <0>         0.1001
      5 N2         -1.0241   -2.7266    0.9178 N.pl3     1 <0>        -0.6458
      6 C4          0.1746   -1.9061    1.1501 C.3       1 <0>         0.1001
      7 C5         -0.2461   -0.4334    1.1953 C.3       1 <0>        -0.0232
      8 C6         -1.3124   -3.8238    1.7328 C.ar      1 <0>         0.1964
      9 C7         -2.5063   -4.5173    1.5685 C.ar      1 <0>        -0.1926
     10 C8         -2.7954   -5.6037    2.3722 C.ar      1 <0>        -0.0687
     11 C9         -1.9009   -6.0072    3.3431 C.ar      1 <0>        -0.1332
     12 C10        -0.7003   -5.3177    3.5157 C.ar      1 <0>         0.0707
     13 C11        -0.4058   -4.2250    2.7018 C.ar      1 <0>        -0.1810
     14 C12         0.2607   -5.7486    4.5571 C.2       1 <0>        -0.2364
     15 C13         1.6318   -5.9722    4.3810 C.2       1 <0>         0.1226
     16 N3          2.1504   -6.3419    5.5257 N.2       1 <0>        -0.3238
     17 N4          1.1448   -6.3763    6.4979 N.pl3     1 <0>        -0.3425
     18 C14        -0.0313   -6.0025    5.9033 C.2       1 <0>         0.3270
     19 N5         -1.1690   -5.9405    6.6040 N.2       1 <0>        -0.5094
     20 C15        -1.2005   -6.2312    7.8851 C.2       1 <0>         0.2406
     21 C16        -0.0248   -6.6171    8.5508 C.2       1 <0>        -0.2495
     22 C17         1.1627   -6.6936    7.8295 C.2       1 <0>         0.5033
     23 N6          2.3348   -7.0653    8.4461 N.pl3     1 <0>        -0.8204
     24 C18        -0.0508   -6.9465    9.9963 C.ar      1 <0>        -0.0476
     25 C19         0.2370   -8.2426   10.4225 C.ar      1 <0>        -0.0944
     26 C20         0.2120   -8.5463   11.7673 C.ar      1 <0>        -0.1398
     27 C21        -0.1001   -7.5622   12.6974 C.ar      1 <0>         0.1544
     28 C22        -0.3873   -6.2699   12.2753 C.ar      1 <0>        -0.1153
     29 C23        -0.3576   -5.9594   10.9321 C.ar      1 <0>        -0.0797
     30 N7         -0.1257   -7.8734   14.0616 N.am      1 <0>        -0.6791
     31 C24         0.2888   -6.9658   14.9676 C.2       1 <0>         0.5139
     32 O1          0.6058   -5.8515   14.6085 O.2       1 <0>        -0.5170
     33 C25         0.3584   -7.3355   16.4269 C.3       1 <0>        -0.1402
     34 C26         0.8557   -6.1346   17.2341 C.3       1 <0>        -0.0967
     35 C27         0.9264   -6.5100   18.7157 C.3       1 <0>        -0.0940
     36 C28         2.0783   -7.5147   18.9660 C.3       1 <0>        -0.1227
     37 C29         2.3922   -7.3074   20.4685 C.3       1 <0>        -0.1268
     38 C30         2.2372   -5.7874   20.6812 C.3       1 <0>        -0.1269
     39 C31         1.3053   -5.2803   19.5667 C.3       1 <0>        -0.1214
     40 H1         -0.3611    1.9090   -0.0021 H         1 <0>         0.1244
     41 H2         -1.8357    1.5891   -0.9463 H         1 <0>         0.1247
     42 H3         -1.8992    1.5838    0.8326 H         1 <0>         0.1213
     43 H4         -2.8129   -0.6826    0.8167 H         1 <0>         0.1321
     44 H5         -2.8102   -0.5529   -0.9587 H         1 <0>         0.1399
     45 H6         -2.8325   -2.9372   -0.1381 H         1 <0>         0.1273
     46 H7         -1.4098   -2.5571   -1.1443 H         1 <0>         0.0862
     47 H8          0.6316   -2.1857    2.0994 H         1 <0>         0.1261
     48 H9          0.8861   -2.0590    0.3387 H         1 <0>         0.0863
     49 H10         0.6408    0.1958    1.2704 H         1 <0>         0.1396
     50 H11        -0.8861   -0.2646    2.0613 H         1 <0>         0.1321
     51 H12        -3.2099   -4.2059    0.8107 H         1 <0>         0.1195
     52 H13        -3.7244   -6.1386    2.2406 H         1 <0>         0.1268
     53 H14        -2.1306   -6.8564    3.9695 H         1 <0>         0.1232
     54 H15         0.5241   -3.6905    2.8281 H         1 <0>         0.1206
     55 H16         2.1729   -5.8588    3.4533 H         1 <0>         0.1972
     56 H17        -2.1325   -6.1732    8.4278 H         1 <0>         0.1804
     57 H18         3.1594   -7.1045    7.9368 H         1 <0>         0.4181
     58 H19         2.3367   -7.2881    9.3901 H         1 <0>         0.4271
     59 H20         0.4789   -9.0079    9.7000 H         1 <0>         0.1265
     60 H21         0.4348   -9.5500   12.0979 H         1 <0>         0.1306
     61 H22        -0.6299   -5.5070   13.0001 H         1 <0>         0.1427
     62 H23        -0.5766   -4.9538   10.6049 H         1 <0>         0.1288
     63 H24        -0.4417   -8.7423   14.3550 H         1 <0>         0.4139
     64 H25        -0.6332   -7.6229   16.7766 H         1 <0>         0.0986
     65 H26         1.0460   -8.1711   16.5577 H         1 <0>         0.0992
     66 H27         1.8473   -5.8473   16.8844 H         1 <0>         0.0718
     67 H28         0.1681   -5.2991   17.1034 H         1 <0>         0.0712
     68 H29        -0.0245   -6.9260   19.0486 H         1 <0>         0.0759
     69 H30         1.7477   -8.5362   18.7778 H         1 <0>         0.0649
     70 H31         2.9453   -7.2690   18.3528 H         1 <0>         0.0676
     71 H32         1.6792   -7.8536   21.0861 H         1 <0>         0.0653
     72 H33         3.4115   -7.6220   20.6922 H         1 <0>         0.0646
     73 H34         1.7938   -5.5902   21.6572 H         1 <0>         0.0629
     74 H35         3.2088   -5.2990   20.6064 H         1 <0>         0.0626
     75 H36         1.8246   -4.5459   18.9510 H         1 <0>         0.0653
     76 H37         0.4096   -4.8371   20.0018 H         1 <0>         0.0634
     77 H38        -0.4149   -0.3229   -0.8339 H         1 <0>         0.4243
@<TRIPOS>BOND
     1    1    2 1
     2    1   40 1
     3    1   41 1
     4    1   42 1
     5    2    7 1
     6    2    3 1
     7    2   77 1
     8    3    4 1
     9    3   43 1
    10    3   44 1
    11    4    5 1
    12    4   45 1
    13    4   46 1
    14    5    6 1
    15    5    8 1
    16    6    7 1
    17    6   47 1
    18    6   48 1
    19    7   49 1
    20    7   50 1
    21    8   13 ar
    22    8    9 ar
    23    9   10 ar
    24    9   51 1
    25   10   11 ar
    26   10   52 1
    27   11   12 ar
    28   11   53 1
    29   12   13 ar
    30   12   14 1
    31   13   54 1
    32   14   18 2
    33   14   15 1
    34   15   16 2
    35   15   55 1
    36   16   17 1
    37   17   22 1
    38   17   18 1
    39   18   19 1
    40   19   20 2
    41   20   21 1
    42   20   56 1
    43   21   22 2
    44   21   24 1
    45   22   23 1
    46   23   57 1
    47   23   58 1
    48   24   29 ar
    49   24   25 ar
    50   25   26 ar
    51   25   59 1
    52   26   27 ar
    53   26   60 1
    54   27   28 ar
    55   27   30 1
    56   28   29 ar
    57   28   61 1
    58   29   62 1
    59   30   31 am
    60   30   63 1
    61   31   32 2
    62   31   33 1
    63   33   34 1
    64   33   64 1
    65   33   65 1
    66   34   35 1
    67   34   66 1
    68   34   67 1
    69   35   39 1
    70   35   36 1
    71   35   68 1
    72   36   37 1
    73   36   69 1
    74   36   70 1
    75   37   38 1
    76   37   71 1
    77   37   72 1
    78   38   39 1
    79   38   73 1
    80   38   74 1
    81   39   75 1
    82   39   76 1
@<TRIPOS>MOLECULE
CHEMBL1085316__1
   76    81     0     0     0
SMALL
USER_CHARGES

@<TRIPOS>ATOM
      1 C1         -1.2846    1.3158   -0.0844 C.3       1 <0>         0.0243
      2 N1         -0.9803   -0.1213   -0.0684 N.3       1 <0>        -0.5424
      3 C2         -2.2033   -0.9201   -0.2235 C.3       1 <0>         0.0381
      4 C3         -1.8278   -2.3971   -0.3835 C.3       1 <0>         0.1266
      5 N2         -0.9700   -2.7862    0.7462 N.pl3     1 <0>        -0.6331
      6 C4          0.2023   -1.9513    1.0495 C.3       1 <0>         0.1271
      7 C5         -0.2532   -0.4919    1.1531 C.3       1 <0>         0.0385
      8 C6         -1.2613   -3.9182    1.5109 C.ar      1 <0>         0.2209
      9 C7         -2.4339   -4.6294    1.2818 C.ar      1 <0>        -0.2035
     10 C8         -2.7258   -5.7502    2.0357 C.ar      1 <0>        -0.0695
     11 C9         -1.8551   -6.1707    3.0210 C.ar      1 <0>        -0.1532
     12 C10        -0.6760   -5.4637    3.2585 C.ar      1 <0>         0.0594
     13 C11        -0.3785   -4.3362    2.4948 C.ar      1 <0>        -0.1917
     14 C12         0.2593   -5.9129    4.3155 C.2       1 <0>        -0.2126
     15 C13         1.6400   -6.1020    4.1776 C.2       1 <0>         0.1209
     16 N3          2.1286   -6.5028    5.3250 N.2       1 <0>        -0.3266
     17 N4          1.0926   -6.5933    6.2610 N.pl3     1 <0>        -0.3439
     18 C14        -0.0712   -6.2220    5.6410 C.2       1 <0>         0.3165
     19 N5         -1.2323   -6.2089    6.3049 N.2       1 <0>        -0.5001
     20 C15        -1.2997   -6.5470    7.5729 C.2       1 <0>         0.2343
     21 C16        -0.1383   -6.9331    8.2634 C.2       1 <0>        -0.2577
     22 C17         1.0735   -6.9588    7.5802 C.2       1 <0>         0.5022
     23 N6          2.2325   -7.3290    8.2220 N.pl3     1 <0>        -0.8246
     24 C18        -0.2047   -7.3157    9.6944 C.ar      1 <0>        -0.0381
     25 C19         0.0968   -8.6204   10.0831 C.ar      1 <0>        -0.0960
     26 C20         0.0342   -8.9737   11.4145 C.ar      1 <0>        -0.1401
     27 C21        -0.3294   -8.0311   12.3684 C.ar      1 <0>         0.1487
     28 C22        -0.6304   -6.7302   11.9837 C.ar      1 <0>        -0.1147
     29 C23        -0.5633   -6.3701   10.6543 C.ar      1 <0>        -0.0810
     30 N7         -0.3930   -8.3925   13.7189 N.am      1 <0>        -0.6782
     31 C24        -0.0283   -7.5105   14.6704 C.2       1 <0>         0.5124
     32 O1          0.2760   -6.3775   14.3626 O.2       1 <0>        -0.5166
     33 C25         0.0013   -7.9320   16.1170 C.3       1 <0>        -0.1396
     34 C26         0.4457   -6.7517   16.9831 C.3       1 <0>        -0.0971
     35 C27         0.4758   -7.1796   18.4518 C.3       1 <0>        -0.0936
     36 C28         1.6404   -8.1690   18.7043 C.3       1 <0>        -0.1228
     37 C29         1.9002   -8.0107   20.2230 C.3       1 <0>        -0.1266
     38 C30         1.7054   -6.5029   20.4849 C.3       1 <0>        -0.1266
     39 C31         0.7998   -5.9745   19.3587 C.3       1 <0>        -0.1216
     40 H1         -0.3555    1.8843   -0.0446 H         1 <0>         0.0700
     41 H2         -1.8230    1.5630   -0.9993 H         1 <0>         0.0700
     42 H3         -1.9010    1.5663    0.7789 H         1 <0>         0.0254
     43 H4         -2.8318   -0.7981    0.6586 H         1 <0>         0.0383
     44 H5         -2.7468   -0.5852   -1.1070 H         1 <0>         0.0849
     45 H6         -2.7314   -3.0067   -0.3840 H         1 <0>         0.0873
     46 H7         -1.2871   -2.5382   -1.3194 H         1 <0>         0.0688
     47 H8          0.6408   -2.2661    1.9965 H         1 <0>         0.0859
     48 H9          0.9381   -2.0495    0.2514 H         1 <0>         0.0687
     49 H10         0.6176    0.1536    1.2680 H         1 <0>         0.0846
     50 H11        -0.9088   -0.3758    2.0161 H         1 <0>         0.0382
     51 H12        -3.1188   -4.3047    0.5124 H         1 <0>         0.1189
     52 H13        -3.6381   -6.2987    1.8537 H         1 <0>         0.1194
     53 H14        -2.0869   -7.0469    3.6083 H         1 <0>         0.1154
     54 H15         0.5350   -3.7878    2.6715 H         1 <0>         0.1195
     55 H16         2.2087   -5.9436    3.2732 H         1 <0>         0.1990
     56 H17        -2.2499   -6.5279    8.0857 H         1 <0>         0.1776
     57 H18         3.0741   -7.3327    7.7396 H         1 <0>         0.4170
     58 H19         2.2083   -7.5863    9.1569 H         1 <0>         0.4245
     59 H20         0.3787   -9.3537    9.3420 H         1 <0>         0.1265
     60 H21         0.2676   -9.9842   11.7161 H         1 <0>         0.1287
     61 H22        -0.9131   -5.9995   12.7270 H         1 <0>         0.1415
     62 H23        -0.7930   -5.3578   10.3563 H         1 <0>         0.1296
     63 H24        -0.6996   -9.2778   13.9700 H         1 <0>         0.4125
     64 H25        -0.9947   -8.2523   16.4226 H         1 <0>         0.0976
     65 H26         0.7023   -8.7575   16.2406 H         1 <0>         0.0981
     66 H27         1.4417   -6.4314   16.6775 H         1 <0>         0.0720
     67 H28        -0.2553   -5.9261   16.8595 H         1 <0>         0.0714
     68 H29        -0.4763   -7.6270   18.7374 H         1 <0>         0.0756
     69 H30         1.3384   -9.1894   18.4684 H         1 <0>         0.0649
     70 H31         2.5215   -7.8833   18.1298 H         1 <0>         0.0680
     71 H32         1.1793   -8.5937   20.7962 H         1 <0>         0.0647
     72 H33         2.9182   -8.3123   20.4694 H         1 <0>         0.0640
     73 H34         1.2261   -6.3508   21.4520 H         1 <0>         0.0622
     74 H35         2.6681   -5.9923   20.4605 H         1 <0>         0.0624
     75 H36         1.3230   -5.2075   18.7878 H         1 <0>         0.0657
     76 H37        -0.1191   -5.5660   19.7792 H         1 <0>         0.0632
@<TRIPOS>BOND
     1    1    2 1
     2    1   40 1
     3    1   41 1
     4    1   42 1
     5    2    7 1
     6    2    3 1
     7    3    4 1
     8    3   43 1
     9    3   44 1
    10    4    5 1
    11    4   45 1
    12    4   46 1
    13    5    6 1
    14    5    8 1
    15    6    7 1
    16    6   47 1
    17    6   48 1
    18    7   49 1
    19    7   50 1
    20    8   13 ar
    21    8    9 ar
    22    9   10 ar
    23    9   51 1
    24   10   11 ar
    25   10   52 1
    26   11   12 ar
    27   11   53 1
    28   12   13 ar
    29   12   14 1
    30   13   54 1
    31   14   18 2
    32   14   15 1
    33   15   16 2
    34   15   55 1
    35   16   17 1
    36   17   22 1
    37   17   18 1
    38   18   19 1
    39   19   20 2
    40   20   21 1
    41   20   56 1
    42   21   22 2
    43   21   24 1
    44   22   23 1
    45   23   57 1
    46   23   58 1
    47   24   29 ar
    48   24   25 ar
    49   25   26 ar
    50   25   59 1
    51   26   27 ar
    52   26   60 1
    53   27   28 ar
    54   27   30 1
    55   28   29 ar
    56   28   61 1
    57   29   62 1
    58   30   31 am
    59   30   63 1
    60   31   32 2
    61   31   33 1
    62   33   34 1
    63   33   64 1
    64   33   65 1
    65   34   35 1
    66   34   66 1
    67   34   67 1
    68   35   39 1
    69   35   36 1
    70   35   68 1
    71   36   37 1
    72   36   69 1
    73   36   70 1
    74   37   38 1
    75   37   71 1
    76   37   72 1
    77   38   39 1
    78   38   73 1
    79   38   74 1
    80   39   75 1
    81   39   76 1
@<TRIPOS>MOLECULE
CHEMBL296586
   31    34     0     0     0
SMALL
USER_CHARGES

@<TRIPOS>ATOM
      1 C1         -0.0166    1.3732    0.0096 C.ar      1 <0>        -0.1257
      2 C2          1.1748    2.0786    0.0020 C.ar      1 <0>        -0.0832
      3 C3          2.3792    1.4098    0.0056 C.ar      1 <0>        -0.1400
      4 C4          2.4210    0.0136    0.0061 C.ar      1 <0>         0.1789
      5 C5          1.2194   -0.6945   -0.0178 C.ar      1 <0>        -0.0582
      6 C6          0.0021   -0.0041    0.0020 C.ar      1 <0>        -0.0848
      7 C7          1.1765   -2.1700   -0.1110 C.2       1 <0>         0.1249
      8 C8          2.0458   -2.9289   -0.8258 C.2       1 <0>        -0.1473
      9 C9          1.6305   -4.3071   -0.6826 C.ar      1 <0>        -0.0956
     10 C10         2.1330   -5.5059   -1.2017 C.ar      1 <0>        -0.0291
     11 C11         1.4744   -6.6587   -0.8492 C.ar      1 <0>        -0.1144
     12 C12         0.3640   -6.6479   -0.0195 C.ar      1 <0>        -0.0709
     13 C13        -0.1535   -5.4768    0.5077 C.ar      1 <0>        -0.1209
     14 C14         0.4938   -4.2910    0.1676 C.ar      1 <0>         0.1207
     15 N1          0.2503   -2.9898    0.5038 N.pl3     1 <0>        -0.5782
     16 H1         -0.4640   -2.6874    1.0863 H         1 <0>         0.4210
     17 Br1         2.1020   -8.3126   -1.5175 Br        1 <0>        -0.0539
     18 C15         3.2306   -2.3907   -1.5888 C.3       1 <0>        -0.0636
     19 C16         4.1060   -1.6483   -0.6094 C.2       1 <0>         0.5307
     20 O1          5.2428   -2.0303   -0.4280 O.2       1 <0>        -0.5234
     21 N2          3.6660   -0.5863    0.0608 N.am      1 <0>        -0.6636
     22 H2         -0.9584    1.9016    0.0259 H         1 <0>         0.1335
     23 H3          1.1598    3.1584   -0.0064 H         1 <0>         0.1345
     24 H4          3.3016    1.9714    0.0076 H         1 <0>         0.1356
     25 H5         -0.9274   -0.5540    0.0114 H         1 <0>         0.1274
     26 H6          2.9973   -5.5236   -1.8490 H         1 <0>         0.1433
     27 H7         -0.1141   -7.5852    0.2239 H         1 <0>         0.1348
     28 H8         -1.0196   -5.4824    1.1528 H         1 <0>         0.1402
     29 H9          3.7892   -3.2143   -2.0334 H         1 <0>         0.1154
     30 H10         2.8897   -1.7104   -2.3693 H         1 <0>         0.1052
     31 H11         4.3030   -0.1787    0.6682 H         1 <0>         0.4064
@<TRIPOS>BOND
     1    1    6 ar
     2    1    2 ar
     3    1   22 1
     4    2    3 ar
     5    2   23 1
     6    3    4 ar
     7    3   24 1
     8    4   21 1
     9    4    5 ar
    10    5    6 ar
    11    5    7 1
    12    6   25 1
    13    7   15 1
    14    7    8 2
    15    8    9 1
    16    8   18 1
    17    9   14 ar
    18    9   10 ar
    19   10   11 ar
    20   10   26 1
    21   11   12 ar
    22   11   17 1
    23   12   13 ar
    24   12   27 1
    25   13   14 ar
    26   13   28 1
    27   14   15 1
    28   15   16 1
    29   18   19 1
    30   18   29 1
    31   18   30 1
    32   19   20 2
    33   19   21 am
    34   21   31 1
@<TRIPOS>MOLECULE
CHEMBL217090
   69    74     0     0     0
SMALL
USER_CHARGES

@<TRIPOS>ATOM
      1 C1          0.1306    1.1126    1.4621 C.ar      1 <0>        -0.0825
      2 C2          0.7150    1.5188    0.2766 C.ar      1 <0>        -0.0886
      3 C3          1.8894    0.9319   -0.1564 C.ar      1 <0>        -0.0108
      4 C4          2.4865   -0.0693    0.5997 C.ar      1 <0>         0.1621
      5 C5          1.9008   -0.4798    1.7925 C.ar      1 <0>         0.0424
      6 C6          0.7192    0.1143    2.2231 C.ar      1 <0>         0.0489
      7 O1          0.3504   -0.4556    3.4078 O.3       1 <0>        -0.2995
      8 C7          1.0961   -1.6845    3.4922 C.3       1 <0>         0.2112
      9 O2          2.2739   -1.4239    2.7063 O.3       1 <0>        -0.2995
     10 N1          3.6763   -0.6646    0.1610 N.pl3     1 <0>        -0.6302
     11 C8          4.8463    0.0657    0.1408 C.ar      1 <0>         0.5037
     12 C9          6.0780   -0.5467   -0.1824 C.ar      1 <0>        -0.2435
     13 C10         7.2451    0.2572   -0.1861 C.ar      1 <0>         0.2620
     14 C11         8.4785   -0.3211   -0.5016 C.ar      1 <0>        -0.2529
     15 C12         8.5461   -1.6657   -0.8054 C.ar      1 <0>         0.2133
     16 C13         7.3979   -2.4581   -0.8026 C.ar      1 <0>        -0.2680
     17 C14         6.1696   -1.9134   -0.4947 C.ar      1 <0>         0.2336
     18 O3          5.0575   -2.6913   -0.4934 O.3       1 <0>        -0.3095
     19 C15         5.2446   -4.0911   -0.7119 C.3       1 <0>         0.0857
     20 C16         5.2846   -4.3739   -2.2168 C.3       1 <0>        -0.1844
     21 C17         5.4062   -5.8834   -2.4414 C.3       1 <0>         0.0647
     22 O4          4.3093   -6.5473   -1.8104 O.3       1 <0>        -0.3751
     23 C18         4.2484   -6.3576   -0.3953 C.3       1 <0>         0.0652
     24 C19         4.0804   -4.8671   -0.0885 C.3       1 <0>        -0.1564
     25 O5          9.7454   -2.2244   -1.1113 O.3       1 <0>        -0.3071
     26 C20        10.8849   -1.3623   -1.0980 C.3       1 <0>         0.0594
     27 C21        12.1353   -2.1641   -1.4649 C.3       1 <0>        -0.1491
     28 C22        13.3554   -1.2410   -1.4507 C.3       1 <0>        -0.0021
     29 N2         14.5560   -2.0108   -1.8029 N.4       1 <0>        -0.3935
     30 C23        14.4990   -2.4249   -3.2282 C.3       1 <0>        -0.0091
     31 C24        15.9843   -2.6907   -3.5798 C.3       1 <0>        -0.1458
     32 C25        16.7279   -1.5822   -2.7999 C.3       1 <0>        -0.1456
     33 C26        15.7609   -1.1624   -1.6774 C.3       1 <0>        -0.0084
     34 N3          7.1308    1.5605    0.1164 N.ar      1 <0>        -0.5658
     35 C27         5.9599    2.0750    0.4088 C.ar      1 <0>         0.3750
     36 N4          4.8441    1.3640    0.4191 N.ar      1 <0>        -0.5883
     37 Cl1         2.6183    1.4456   -1.6459 Cl        1 <0>        -0.0369
     38 H1         -0.7845    1.5773    1.7984 H         1 <0>         0.1522
     39 H2          0.2526    2.2966   -0.3130 H         1 <0>         0.1564
     40 H3          1.3649   -1.8992    4.5264 H         1 <0>         0.1369
     41 H4          0.5256   -2.5089    3.0645 H         1 <0>         0.0901
     42 H5          3.6774   -1.5904   -0.1285 H         1 <0>         0.4298
     43 H6          9.3744    0.2820   -0.5078 H         1 <0>         0.1431
     44 H7          7.4721   -3.5083   -1.0435 H         1 <0>         0.1456
     45 H8          6.1814   -4.4095   -0.2547 H         1 <0>         0.0857
     46 H9          4.3680   -4.0093   -2.6805 H         1 <0>         0.0895
     47 H10         6.1435   -3.8694   -2.6595 H         1 <0>         0.0837
     48 H11         5.3921   -6.0941   -3.5108 H         1 <0>         0.1043
     49 H12         6.3426   -6.2404   -2.0127 H         1 <0>         0.0540
     50 H13         3.4003   -6.9099    0.0093 H         1 <0>         0.1086
     51 H14         5.1696   -6.7208    0.0602 H         1 <0>         0.0564
     52 H15         4.0780   -4.7154    0.9909 H         1 <0>         0.0887
     53 H16         3.1394   -4.5125   -0.5092 H         1 <0>         0.0879
     54 H17        10.7422   -0.5602   -1.8222 H         1 <0>         0.0784
     55 H18        11.0061   -0.9355   -0.1024 H         1 <0>         0.0786
     56 H19        12.2781   -2.9661   -0.7407 H         1 <0>         0.0989
     57 H20        12.0142   -2.5908   -2.4605 H         1 <0>         0.0985
     58 H21        13.2127   -0.4389   -2.1748 H         1 <0>         0.1343
     59 H22        13.4766   -0.8143   -0.4550 H         1 <0>         0.1350
     60 H23        13.9082   -3.3340   -3.3414 H         1 <0>         0.1359
     61 H24        14.0949   -1.6229   -3.8460 H         1 <0>         0.1348
     62 H25        16.2918   -3.6778   -3.2345 H         1 <0>         0.0984
     63 H26        16.1515   -2.5865   -4.6519 H         1 <0>         0.1171
     64 H27        17.6528   -1.9732   -2.3759 H         1 <0>         0.1057
     65 H28        16.9387   -0.7359   -3.4538 H         1 <0>         0.1044
     66 H29        15.4899   -0.1130   -1.7939 H         1 <0>         0.1318
     67 H30        16.2281   -1.3223   -0.7057 H         1 <0>         0.1333
     68 H31         5.9036    3.1268    0.6477 H         1 <0>         0.1992
     69 H32        14.6374   -2.8211   -1.2072 H         1 <0>         0.4280
@<TRIPOS>BOND
     1    1    6 ar
     2    1    2 ar
     3    1   38 1
     4    2    3 ar
     5    2   39 1
     6    3    4 ar
     7    3   37 1
     8    4    5 ar
     9    4   10 1
    10    5    9 1
    11    5    6 ar
    12    6    7 1
    13    7    8 1
    14    8    9 1
    15    8   40 1
    16    8   41 1
    17   10   11 1
    18   10   42 1
    19   11   36 ar
    20   11   12 ar
    21   12   17 ar
    22   12   13 ar
    23   13   14 ar
    24   13   34 ar
    25   14   15 ar
    26   14   43 1
    27   15   16 ar
    28   15   25 1
    29   16   17 ar
    30   16   44 1
    31   17   18 1
    32   18   19 1
    33   19   24 1
    34   19   20 1
    35   19   45 1
    36   20   21 1
    37   20   46 1
    38   20   47 1
    39   21   22 1
    40   21   48 1
    41   21   49 1
    42   22   23 1
    43   23   24 1
    44   23   50 1
    45   23   51 1
    46   24   52 1
    47   24   53 1
    48   25   26 1
    49   26   27 1
    50   26   54 1
    51   26   55 1
    52   27   28 1
    53   27   56 1
    54   27   57 1
    55   28   29 1
    56   28   58 1
    57   28   59 1
    58   29   33 1
    59   29   30 1
    60   29   69 1
    61   30   31 1
    62   30   60 1
    63   30   61 1
    64   31   32 1
    65   31   62 1
    66   31   63 1
    67   32   33 1
    68   32   64 1
    69   32   65 1
    70   33   66 1
    71   33   67 1
    72   34   35 ar
    73   35   36 ar
    74   35   68 1
@<TRIPOS>MOLECULE
CHEMBL411050
   70    74     0     0     0
SMALL
USER_CHARGES

@<TRIPOS>ATOM
      1 C1          1.5571    0.8881    0.3908 C.3       1 <0>        -0.1307
      2 C2          0.9573   -0.4868    0.2461 C.ar      1 <0>        -0.0249
      3 C3          0.9943   -1.1310   -0.9740 C.ar      1 <0>        -0.1079
      4 C4          0.4451   -2.3917   -1.1121 C.ar      1 <0>        -0.1034
      5 C5         -0.1478   -3.0198   -0.0229 C.ar      1 <0>         0.1325
      6 C6         -0.1897   -2.3816    1.2068 C.ar      1 <0>        -0.0799
      7 C7          0.3693   -1.1112    1.3474 C.ar      1 <0>        -0.1282
      8 C8          0.3337   -0.4261    2.6569 C.2       1 <0>         0.5673
      9 O1          0.7508    0.7112    2.7594 O.2       1 <0>        -0.5102
     10 N1         -0.1611   -1.0623    3.7371 N.am      1 <0>        -0.6569
     11 C9         -0.1066   -0.4505    4.9966 C.ar      1 <0>        -0.0037
     12 C10        -0.2561    0.9273    5.1266 C.ar      1 <0>         0.1997
     13 N2         -0.1989    1.4699    6.3313 N.ar      1 <0>        -0.5387
     14 C11        -0.0023    0.7193    7.4049 C.ar      1 <0>         0.5398
     15 N3          0.1441   -0.5944    7.3192 N.ar      1 <0>        -0.5394
     16 C12         0.0927   -1.2068    6.1481 C.ar      1 <0>         0.1680
     17 N4          0.0521    1.3249    8.6514 N.pl3     1 <0>        -0.6392
     18 C13         0.3755    0.5675    9.7845 C.ar      1 <0>         0.1391
     19 C14         1.2868   -0.4756    9.6855 C.ar      1 <0>        -0.0677
     20 C15         1.6052   -1.2225   10.8023 C.ar      1 <0>        -0.1620
     21 C16         1.0144   -0.9303   12.0246 C.ar      1 <0>         0.1753
     22 C17         0.1034    0.1132   12.1237 C.ar      1 <0>        -0.1607
     23 C18        -0.2110    0.8634   11.0079 C.ar      1 <0>        -0.1021
     24 N5          1.3368   -1.6876   13.1566 N.pl3     1 <0>        -0.6457
     25 C19         0.6307   -1.4818   14.4306 C.3       1 <0>         0.1009
     26 C20         0.1525   -2.8431   14.9463 C.3       1 <0>        -0.0232
     27 N6          1.2941   -3.7631   15.0278 N.4       1 <0>        -0.3837
     28 C21         1.8298   -4.0156   13.6842 C.3       1 <0>        -0.0232
     29 C22         2.3872   -2.7162   13.1044 C.3       1 <0>         0.0996
     30 C23         0.8566   -5.0319   15.6250 C.3       1 <0>        -0.0470
     31 N7         -0.7026   -4.2958   -0.1681 N.am      1 <0>        -0.6672
     32 C24        -1.8045   -4.6350    0.5300 C.2       1 <0>         0.5999
     33 O2         -2.3708   -3.8038    1.2139 O.2       1 <0>        -0.5208
     34 C25        -2.3231   -6.0129    0.4647 C.2       1 <0>        -0.3282
     35 C26        -1.7559   -7.1234   -0.3019 C.2       1 <0>         0.1076
     36 N8         -2.5097   -8.1611   -0.0879 N.2       1 <0>        -0.2962
     37 O3         -3.5548   -7.7896    0.7885 O.3       1 <0>        -0.0774
     38 C27        -3.4219   -6.5008    1.1125 C.2       1 <0>         0.1681
     39 C28        -4.3283   -5.7204    2.0292 C.3       1 <0>        -0.1008
     40 H1          2.5649    0.8039    0.7975 H         1 <0>         0.0754
     41 H2          1.5985    1.3710   -0.5855 H         1 <0>         0.0631
     42 H3          0.9418    1.4838    1.0650 H         1 <0>         0.1027
     43 H4          1.4536   -0.6480   -1.8239 H         1 <0>         0.1394
     44 H5          0.4765   -2.8905   -2.0695 H         1 <0>         0.1354
     45 H6         -0.6499   -2.8679    2.0542 H         1 <0>         0.1368
     46 H7         -0.5549   -1.9437    3.6427 H         1 <0>         0.4141
     47 H8         -0.4164    1.5450    4.2553 H         1 <0>         0.1863
     48 H9          0.2079   -2.2788    6.0857 H         1 <0>         0.1719
     49 H10        -0.1337    2.2729    8.7385 H         1 <0>         0.4258
     50 H11         1.7463   -0.7029    8.7349 H         1 <0>         0.1373
     51 H12         2.3135   -2.0342   10.7251 H         1 <0>         0.1242
     52 H13        -0.3561    0.3405   13.0743 H         1 <0>         0.1261
     53 H14        -0.9162    1.6777   11.0859 H         1 <0>         0.1310
     54 H15         1.3084   -1.0326   15.1566 H         1 <0>         0.0864
     55 H16        -0.2271   -0.8281   14.2725 H         1 <0>         0.1258
     56 H17        -0.2884   -2.7225   15.9358 H         1 <0>         0.1401
     57 H18        -0.5933   -3.2491   14.2630 H         1 <0>         0.1321
     58 H19         2.6248   -4.7589   13.7437 H         1 <0>         0.1403
     59 H20         1.0332   -4.3861   13.0390 H         1 <0>         0.1320
     60 H21         2.6901   -2.8783   12.0700 H         1 <0>         0.1264
     61 H22         3.2453   -2.3938   13.6942 H         1 <0>         0.0861
     62 H23         0.0759   -5.4745   15.0064 H         1 <0>         0.1213
     63 H24         1.7031   -5.7157   15.6861 H         1 <0>         0.1247
     64 H25         0.4660   -4.8469   16.6257 H         1 <0>         0.1248
     65 H26        -0.2943   -4.9365   -0.7711 H         1 <0>         0.4131
     66 H27        -0.8768   -7.0875   -0.9282 H         1 <0>         0.2099
     67 H28        -5.1348   -5.2730    1.4482 H         1 <0>         0.1067
     68 H29        -4.7492   -6.3894    2.7799 H         1 <0>         0.0918
     69 H30        -3.7566   -4.9344    2.5226 H         1 <0>         0.1153
     70 H31         2.0140   -3.3535   15.6041 H         1 <0>         0.4245
@<TRIPOS>BOND
     1    1    2 1
     2    1   40 1
     3    1   41 1
     4    1   42 1
     5    2    7 ar
     6    2    3 ar
     7    3    4 ar
     8    3   43 1
     9    4    5 ar
    10    4   44 1
    11    5    6 ar
    12    5   31 1
    13    6    7 ar
    14    6   45 1
    15    7    8 1
    16    8    9 2
    17    8   10 am
    18   10   11 1
    19   10   46 1
    20   11   16 ar
    21   11   12 ar
    22   12   13 ar
    23   12   47 1
    24   13   14 ar
    25   14   15 ar
    26   14   17 1
    27   15   16 ar
    28   16   48 1
    29   17   18 1
    30   17   49 1
    31   18   23 ar
    32   18   19 ar
    33   19   20 ar
    34   19   50 1
    35   20   21 ar
    36   20   51 1
    37   21   22 ar
    38   21   24 1
    39   22   23 ar
    40   22   52 1
    41   23   53 1
    42   24   29 1
    43   24   25 1
    44   25   26 1
    45   25   54 1
    46   25   55 1
    47   26   27 1
    48   26   56 1
    49   26   57 1
    50   27   28 1
    51   27   30 1
    52   27   70 1
    53   28   29 1
    54   28   58 1
    55   28   59 1
    56   29   60 1
    57   29   61 1
    58   30   62 1
    59   30   63 1
    60   30   64 1
    61   31   32 am
    62   31   65 1
    63   32   33 2
    64   32   34 1
    65   34   38 2
    66   34   35 1
    67   35   36 2
    68   35   66 1
    69   36   37 1
    70   37   38 1
    71   38   39 1
    72   39   67 1
    73   39   68 1
    74   39   69 1
@<TRIPOS>MOLECULE
CHEMBL411050__1
   69    73     0     0     0
SMALL
USER_CHARGES

@<TRIPOS>ATOM
      1 C1          1.5503    0.8931    0.3847 C.3       1 <0>        -0.1302
      2 C2          0.9499   -0.4814    0.2389 C.ar      1 <0>        -0.0262
      3 C3          0.9852   -1.1239   -0.9822 C.ar      1 <0>        -0.1091
      4 C4          0.4355   -2.3843   -1.1213 C.ar      1 <0>        -0.1060
      5 C5         -0.1563   -3.0138   -0.0323 C.ar      1 <0>         0.1321
      6 C6         -0.1965   -2.3773    1.1983 C.ar      1 <0>        -0.0797
      7 C7          0.3631   -1.1072    1.3400 C.ar      1 <0>        -0.1247
      8 C8          0.3293   -0.4239    2.6505 C.2       1 <0>         0.5651
      9 O1          0.7468    0.7131    2.7541 O.2       1 <0>        -0.5125
     10 N1         -0.1644   -1.0615    3.7304 N.am      1 <0>        -0.6540
     11 C9         -0.1082   -0.4515    4.9907 C.ar      1 <0>        -0.0181
     12 C10        -0.2572    0.9262    5.1228 C.ar      1 <0>         0.1997
     13 N2         -0.1984    1.4671    6.3282 N.ar      1 <0>        -0.5459
     14 C11        -0.0006    0.7150    7.4005 C.ar      1 <0>         0.5460
     15 N3          0.1453   -0.5986    7.3128 N.ar      1 <0>        -0.5357
     16 C12         0.0923   -1.2094    6.1410 C.ar      1 <0>         0.1726
     17 N4          0.0555    1.3188    8.6478 N.pl3     1 <0>        -0.6339
     18 C13         0.3800    0.5597    9.7794 C.ar      1 <0>         0.1034
     19 C14         1.2909   -0.4835    9.6779 C.ar      1 <0>        -0.0608
     20 C15         1.6105   -1.2320   10.7932 C.ar      1 <0>        -0.1798
     21 C16         1.0213   -0.9413   12.0167 C.ar      1 <0>         0.2072
     22 C17         0.1107    0.1023   12.1183 C.ar      1 <0>        -0.1792
     23 C18        -0.2049    0.8541   11.0040 C.ar      1 <0>        -0.0945
     24 N5          1.3448   -1.7003   13.1472 N.pl3     1 <0>        -0.6323
     25 C19         0.6392   -1.4955   14.4213 C.3       1 <0>         0.1269
     26 C20         0.1442   -2.8545   14.9276 C.3       1 <0>         0.0384
     27 N6          1.2734   -3.7923   14.9867 N.3       1 <0>        -0.5425
     28 C21         1.8353   -4.0346   13.6513 C.3       1 <0>         0.0382
     29 C22         2.3954   -2.7281   13.0910 C.3       1 <0>         0.1261
     30 C23         0.8774   -5.0532   15.6280 C.3       1 <0>         0.0243
     31 N7         -0.7116   -4.2894   -0.1786 N.am      1 <0>        -0.6672
     32 C24        -1.8128   -4.6292    0.5204 C.2       1 <0>         0.5989
     33 O2         -2.3780   -3.7988    1.2061 O.2       1 <0>        -0.5189
     34 C25        -2.3319   -6.0069    0.4538 C.2       1 <0>        -0.3279
     35 C26        -1.7659   -7.1165   -0.3150 C.2       1 <0>         0.1079
     36 N8         -2.5197   -8.1543   -0.1015 N.2       1 <0>        -0.2982
     37 O3         -3.5637   -7.7837    0.7767 O.3       1 <0>        -0.0778
     38 C27        -3.4300   -6.4954    1.1022 C.2       1 <0>         0.1688
     39 C28        -4.3351   -5.7160    2.0212 C.3       1 <0>        -0.1014
     40 H1          2.5586    0.8080    0.7901 H         1 <0>         0.0752
     41 H2          1.5907    1.3774   -0.5909 H         1 <0>         0.0613
     42 H3          0.9360    1.4880    1.0606 H         1 <0>         0.1034
     43 H4          1.4436   -0.6399   -1.8319 H         1 <0>         0.1379
     44 H5          0.4655   -2.8818   -2.0795 H         1 <0>         0.1339
     45 H6         -0.6558   -2.8646    2.0456 H         1 <0>         0.1376
     46 H7         -0.5586   -1.9427    3.6353 H         1 <0>         0.4125
     47 H8         -0.4183    1.5451    4.2525 H         1 <0>         0.1827
     48 H9          0.2071   -2.2814    6.0769 H         1 <0>         0.1699
     49 H10        -0.1300    2.2668    8.7365 H         1 <0>         0.4219
     50 H11         1.7492   -0.7095    8.7264 H         1 <0>         0.1301
     51 H12         2.3184   -2.0438   10.7141 H         1 <0>         0.1237
     52 H13        -0.3476    0.3284   13.0698 H         1 <0>         0.1253
     53 H14        -0.9097    1.6685   11.0840 H         1 <0>         0.1237
     54 H15         1.3208   -1.0589   15.1513 H         1 <0>         0.0694
     55 H16        -0.2107   -0.8308   14.2664 H         1 <0>         0.0861
     56 H17        -0.2842   -2.7377   15.9230 H         1 <0>         0.0854
     57 H18        -0.6148   -3.2415   14.2477 H         1 <0>         0.0383
     58 H19         2.6334   -4.7737   13.7211 H         1 <0>         0.0855
     59 H20         1.0528   -4.4051   12.9891 H         1 <0>         0.0380
     60 H21         2.7061   -2.8780   12.0571 H         1 <0>         0.0867
     61 H22         3.2491   -2.4123   13.6907 H         1 <0>         0.0692
     62 H23         0.0706   -5.5132   15.0575 H         1 <0>         0.0256
     63 H24         1.7319   -5.7292   15.6587 H         1 <0>         0.0701
     64 H25         0.5360   -4.8528   16.6435 H         1 <0>         0.0705
     65 H26        -0.3042   -4.9294   -0.7830 H         1 <0>         0.4123
     66 H27        -0.8875   -7.0799   -0.9423 H         1 <0>         0.2096
     67 H28        -5.1421   -5.2675    1.4418 H         1 <0>         0.1062
     68 H29        -4.7552   -6.3859    2.7714 H         1 <0>         0.0924
     69 H30        -3.7626   -4.9308    2.5150 H         1 <0>         0.1165
@<TRIPOS>BOND
     1    1    2 1
     2    1   40 1
     3    1   41 1
     4    1   42 1
     5    2    7 ar
     6    2    3 ar
     7    3    4 ar
     8    3   43 1
     9    4    5 ar
    10    4   44 1
    11    5    6 ar
    12    5   31 1
    13    6    7 ar
    14    6   45 1
    15    7    8 1
    16    8    9 2
    17    8   10 am
    18   10   11 1
    19   10   46 1
    20   11   16 ar
    21   11   12 ar
    22   12   13 ar
    23   12   47 1
    24   13   14 ar
    25   14   15 ar
    26   14   17 1
    27   15   16 ar
    28   16   48 1
    29   17   18 1
    30   17   49 1
    31   18   23 ar
    32   18   19 ar
    33   19   20 ar
    34   19   50 1
    35   20   21 ar
    36   20   51 1
    37   21   22 ar
    38   21   24 1
    39   22   23 ar
    40   22   52 1
    41   23   53 1
    42   24   29 1
    43   24   25 1
    44   25   26 1
    45   25   54 1
    46   25   55 1
    47   26   27 1
    48   26   56 1
    49   26   57 1
    50   27   28 1
    51   27   30 1
    52   28   29 1
    53   28   58 1
    54   28   59 1
    55   29   60 1
    56   29   61 1
    57   30   62 1
    58   30   63 1
    59   30   64 1
    60   31   32 am
    61   31   65 1
    62   32   33 2
    63   32   34 1
    64   34   38 2
    65   34   35 1
    66   35   36 2
    67   35   66 1
    68   36   37 1
    69   37   38 1
    70   38   39 1
    71   39   67 1
    72   39   68 1
    73   39   69 1
@<TRIPOS>MOLECULE
CHEMBL591091
   63    68     0     0     0
SMALL
USER_CHARGES

@<TRIPOS>ATOM
      1 C1          3.3353    1.3633    3.5661 C.ar      1 <0>        -0.1525
      2 C2          3.4180   -0.0168    3.5458 C.ar      1 <0>        -0.0817
      3 C3          3.5017   -0.6873    2.3410 C.ar      1 <0>        -0.1937
      4 C4          3.5028    0.0255    1.1504 C.ar      1 <0>         0.1216
      5 C5          3.4197    1.4104    1.1736 C.ar      1 <0>        -0.1459
      6 C6          3.3362    2.0759    2.3812 C.ar      1 <0>        -0.0829
      7 O1          3.5855   -0.6316   -0.0361 O.3       1 <0>        -0.2601
      8 C7          3.6573   -1.9880   -0.0104 C.ar      1 <0>         0.0959
      9 C8          2.4931   -2.7443   -0.0459 C.ar      1 <0>        -0.1267
     10 C9          2.5627   -4.1211   -0.0195 C.ar      1 <0>        -0.0716
     11 C10         3.8036   -4.7540    0.0426 C.ar      1 <0>        -0.0197
     12 C11         4.9707   -3.9918    0.0777 C.ar      1 <0>        -0.0770
     13 C12         4.8948   -2.6155    0.0458 C.ar      1 <0>        -0.1229
     14 C13         3.8818   -6.2341    0.0716 C.2       1 <0>         0.1646
     15 C14         4.9263   -7.0674   -0.5454 C.2       1 <0>        -0.2984
     16 C15         4.5706   -8.3737   -0.2553 C.2       1 <0>         0.3827
     17 N1          3.4621   -8.3699    0.4628 N.pl3     1 <0>        -0.3621
     18 N2          3.0337   -7.0509    0.6588 N.2       1 <0>        -0.2690
     19 C16         2.8181   -9.5810    0.9801 C.3       1 <0>         0.1285
     20 C17         3.6764  -10.2512    2.0316 C.3       1 <0>        -0.0912
     21 C18         5.0259  -10.7215    1.5328 C.ar      1 <0>        -0.0772
     22 C19         5.6610  -11.5888    2.4347 C.ar      1 <0>        -0.1354
     23 C20         6.8942  -12.1407    2.1671 C.ar      1 <0>         0.1185
     24 C21         7.5421  -11.8445    0.9762 C.ar      1 <0>        -0.1744
     25 C22         6.9342  -10.9919    0.0833 C.ar      1 <0>        -0.1004
     26 C23         5.6857  -10.4275    0.3623 C.ar      1 <0>         0.1518
     27 N3          5.1884   -9.5531   -0.6081 N.pl3     1 <0>        -0.6867
     28 O2          7.4762  -12.9756    3.0690 O.3       1 <0>        -0.3129
     29 C24         8.7556  -13.5114    2.7255 C.3       1 <0>         0.1143
     30 C25         9.2397  -14.4074    3.8364 C.ar      1 <0>         0.1206
     31 C26         8.4519  -14.5926    4.9570 C.ar      1 <0>        -0.1497
     32 C27         8.9065  -15.4188    5.9731 C.ar      1 <0>        -0.0741
     33 C28        10.1419  -16.0306    5.8235 C.ar      1 <0>        -0.1713
     34 C29        10.8738  -15.7980    4.6747 C.ar      1 <0>         0.1049
     35 N4         10.4074  -15.0097    3.7258 N.ar      1 <0>        -0.4806
     36 C30         6.0939   -6.6116   -1.3059 C.2       1 <0>         0.6120
     37 O3          7.1409   -6.3775   -0.7312 O.2       1 <0>        -0.5328
     38 N5          6.0079   -6.4518   -2.6414 N.am      1 <0>        -0.8469
     39 H1          3.2654    1.8853    4.5090 H         1 <0>         0.1253
     40 H2          3.4174   -0.5711    4.4728 H         1 <0>         0.1261
     41 H3          3.5666   -1.7652    2.3257 H         1 <0>         0.1282
     42 H4          3.4208    1.9675    0.2484 H         1 <0>         0.1326
     43 H5          3.2712    3.1538    2.3998 H         1 <0>         0.1314
     44 H6          1.5323   -2.2535   -0.0940 H         1 <0>         0.1372
     45 H7          1.6569   -4.7087   -0.0465 H         1 <0>         0.1377
     46 H8          5.9333   -4.4792    0.1262 H         1 <0>         0.1410
     47 H9          5.7986   -2.0247    0.0685 H         1 <0>         0.1373
     48 H10         1.8571   -9.3144    1.4201 H         1 <0>         0.1125
     49 H11         2.6525  -10.2767    0.1575 H         1 <0>         0.0946
     50 H12         3.8360   -9.5467    2.8479 H         1 <0>         0.0875
     51 H13         3.1339  -11.1115    2.4236 H         1 <0>         0.1076
     52 H14         5.1689  -11.8301    3.3653 H         1 <0>         0.1333
     53 H15         8.5068  -12.2760    0.7537 H         1 <0>         0.1377
     54 H16         7.4290  -10.7551   -0.8470 H         1 <0>         0.1323
     55 H17         5.2800   -9.7807   -1.5466 H         1 <0>         0.4189
     56 H18         8.6727  -14.0877    1.8040 H         1 <0>         0.0869
     57 H19         9.4643  -12.6959    2.5815 H         1 <0>         0.0871
     58 H20         7.4946  -14.0997    5.0400 H         1 <0>         0.1442
     59 H21         8.3126  -15.5819    6.8604 H         1 <0>         0.1378
     60 H22        10.5275  -16.6803    6.5953 H         1 <0>         0.1383
     61 H23        11.8369  -16.2706    4.5506 H         1 <0>         0.1612
     62 H24         5.1735   -6.6384   -3.0994 H         1 <0>         0.4019
     63 H25         6.7805   -6.1502   -3.1445 H         1 <0>         0.4039
@<TRIPOS>BOND
     1    1    6 ar
     2    1    2 ar
     3    1   39 1
     4    2    3 ar
     5    2   40 1
     6    3    4 ar
     7    3   41 1
     8    4    5 ar
     9    4    7 1
    10    5    6 ar
    11    5   42 1
    12    6   43 1
    13    7    8 1
    14    8   13 ar
    15    8    9 ar
    16    9   10 ar
    17    9   44 1
    18   10   11 ar
    19   10   45 1
    20   11   12 ar
    21   11   14 1
    22   12   13 ar
    23   12   46 1
    24   13   47 1
    25   14   18 2
    26   14   15 1
    27   15   16 2
    28   15   36 1
    29   16   27 1
    30   16   17 1
    31   17   18 1
    32   17   19 1
    33   19   20 1
    34   19   48 1
    35   19   49 1
    36   20   21 1
    37   20   50 1
    38   20   51 1
    39   21   26 ar
    40   21   22 ar
    41   22   23 ar
    42   22   52 1
    43   23   24 ar
    44   23   28 1
    45   24   25 ar
    46   24   53 1
    47   25   26 ar
    48   25   54 1
    49   26   27 1
    50   27   55 1
    51   28   29 1
    52   29   30 1
    53   29   56 1
    54   29   57 1
    55   30   35 ar
    56   30   31 ar
    57   31   32 ar
    58   31   58 1
    59   32   33 ar
    60   32   59 1
    61   33   34 ar
    62   33   60 1
    63   34   35 ar
    64   34   61 1
    65   36   37 2
    66   36   38 am
    67   38   62 1
    68   38   63 1
@<TRIPOS>MOLECULE
CHEMBL600873
   63    68     0     0     0
SMALL
USER_CHARGES

@<TRIPOS>ATOM
      1 C1          3.3353    1.3633    3.5661 C.ar      1 <0>        -0.1525
      2 C2          3.4180   -0.0168    3.5458 C.ar      1 <0>        -0.0817
      3 C3          3.5017   -0.6873    2.3410 C.ar      1 <0>        -0.1938
      4 C4          3.5028    0.0255    1.1504 C.ar      1 <0>         0.1216
      5 C5          3.4197    1.4104    1.1736 C.ar      1 <0>        -0.1459
      6 C6          3.3362    2.0759    2.3812 C.ar      1 <0>        -0.0828
      7 O1          3.5855   -0.6316   -0.0361 O.3       1 <0>        -0.2601
      8 C7          3.6573   -1.9880   -0.0104 C.ar      1 <0>         0.0960
      9 C8          2.4931   -2.7443   -0.0459 C.ar      1 <0>        -0.1267
     10 C9          2.5627   -4.1211   -0.0195 C.ar      1 <0>        -0.0715
     11 C10         3.8036   -4.7540    0.0426 C.ar      1 <0>        -0.0197
     12 C11         4.9707   -3.9918    0.0777 C.ar      1 <0>        -0.0771
     13 C12         4.8948   -2.6155    0.0458 C.ar      1 <0>        -0.1230
     14 C13         3.8818   -6.2341    0.0716 C.2       1 <0>         0.1645
     15 C14         4.9263   -7.0674   -0.5454 C.2       1 <0>        -0.2987
     16 C15         4.5706   -8.3737   -0.2553 C.2       1 <0>         0.3827
     17 N1          3.4621   -8.3699    0.4628 N.pl3     1 <0>        -0.3620
     18 N2          3.0337   -7.0509    0.6588 N.2       1 <0>        -0.2689
     19 C16         2.8181   -9.5810    0.9801 C.3       1 <0>         0.1285
     20 C17         3.6764  -10.2512    2.0316 C.3       1 <0>        -0.0916
     21 C18         5.0259  -10.7215    1.5328 C.ar      1 <0>        -0.0762
     22 C19         5.6610  -11.5888    2.4347 C.ar      1 <0>        -0.1365
     23 C20         6.8942  -12.1407    2.1671 C.ar      1 <0>         0.1163
     24 C21         7.5421  -11.8445    0.9762 C.ar      1 <0>        -0.1762
     25 C22         6.9342  -10.9919    0.0833 C.ar      1 <0>        -0.1006
     26 C23         5.6857  -10.4275    0.3623 C.ar      1 <0>         0.1507
     27 N3          5.1884   -9.5531   -0.6081 N.pl3     1 <0>        -0.6868
     28 O2          7.4762  -12.9756    3.0690 O.3       1 <0>        -0.3093
     29 C24         8.7556  -13.5114    2.7255 C.3       1 <0>         0.1071
     30 C25         9.2397  -14.4074    3.8364 C.ar      1 <0>        -0.1514
     31 C26         9.9922  -13.8887    4.8793 C.ar      1 <0>        -0.0503
     32 C27        10.4160  -14.7502    5.8793 C.ar      1 <0>        -0.1747
     33 C28        10.0768  -16.0881    5.8041 C.ar      1 <0>         0.1096
     34 N4          9.3598  -16.5465    4.7970 N.ar      1 <0>        -0.4860
     35 C29         8.9345  -15.7551    3.8316 C.ar      1 <0>         0.1248
     36 C30         6.0939   -6.6116   -1.3059 C.2       1 <0>         0.6123
     37 O3          7.1409   -6.3775   -0.7312 O.2       1 <0>        -0.5332
     38 N5          6.0079   -6.4518   -2.6414 N.am      1 <0>        -0.8469
     39 H1          3.2654    1.8853    4.5090 H         1 <0>         0.1254
     40 H2          3.4174   -0.5711    4.4728 H         1 <0>         0.1261
     41 H3          3.5666   -1.7652    2.3257 H         1 <0>         0.1281
     42 H4          3.4208    1.9675    0.2484 H         1 <0>         0.1326
     43 H5          3.2712    3.1538    2.3998 H         1 <0>         0.1315
     44 H6          1.5323   -2.2535   -0.0940 H         1 <0>         0.1372
     45 H7          1.6569   -4.7087   -0.0465 H         1 <0>         0.1377
     46 H8          5.9333   -4.4792    0.1262 H         1 <0>         0.1409
     47 H9          5.7986   -2.0247    0.0685 H         1 <0>         0.1372
     48 H10         1.8571   -9.3144    1.4201 H         1 <0>         0.1126
     49 H11         2.6525  -10.2767    0.1575 H         1 <0>         0.0947
     50 H12         3.8360   -9.5467    2.8479 H         1 <0>         0.0875
     51 H13         3.1339  -11.1115    2.4236 H         1 <0>         0.1078
     52 H14         5.1689  -11.8301    3.3653 H         1 <0>         0.1326
     53 H15         8.5068  -12.2760    0.7537 H         1 <0>         0.1360
     54 H16         7.4290  -10.7551   -0.8470 H         1 <0>         0.1317
     55 H17         5.2800   -9.7807   -1.5466 H         1 <0>         0.4187
     56 H18         8.6727  -14.0877    1.8040 H         1 <0>         0.0764
     57 H19         9.4643  -12.6959    2.5815 H         1 <0>         0.0747
     58 H20        10.2426  -12.8386    4.9115 H         1 <0>         0.1373
     59 H21        11.0041  -14.3808    6.7064 H         1 <0>         0.1401
     60 H22        10.4030  -16.7658    6.5792 H         1 <0>         0.1600
     61 H23         8.3448  -16.1659    3.0254 H         1 <0>         0.1573
     62 H24         5.1735   -6.6384   -3.0994 H         1 <0>         0.4020
     63 H25         6.7805   -6.1502   -3.1445 H         1 <0>         0.4038
@<TRIPOS>BOND
     1    1    6 ar
     2    1    2 ar
     3    1   39 1
     4    2    3 ar
     5    2   40 1
     6    3    4 ar
     7    3   41 1
     8    4    5 ar
     9    4    7 1
    10    5    6 ar
    11    5   42 1
    12    6   43 1
    13    7    8 1
    14    8   13 ar
    15    8    9 ar
    16    9   10 ar
    17    9   44 1
    18   10   11 ar
    19   10   45 1
    20   11   12 ar
    21   11   14 1
    22   12   13 ar
    23   12   46 1
    24   13   47 1
    25   14   18 2
    26   14   15 1
    27   15   16 2
    28   15   36 1
    29   16   27 1
    30   16   17 1
    31   17   18 1
    32   17   19 1
    33   19   20 1
    34   19   48 1
    35   19   49 1
    36   20   21 1
    37   20   50 1
    38   20   51 1
    39   21   26 ar
    40   21   22 ar
    41   22   23 ar
    42   22   52 1
    43   23   24 ar
    44   23   28 1
    45   24   25 ar
    46   24   53 1
    47   25   26 ar
    48   25   54 1
    49   26   27 1
    50   27   55 1
    51   28   29 1
    52   29   30 1
    53   29   56 1
    54   29   57 1
    55   30   35 ar
    56   30   31 ar
    57   31   32 ar
    58   31   58 1
    59   32   33 ar
    60   32   59 1
    61   33   34 ar
    62   33   60 1
    63   34   35 ar
    64   35   61 1
    65   36   37 2
    66   36   38 am
    67   38   62 1
    68   38   63 1
@<TRIPOS>MOLECULE
CHEMBL295601
   83    88     0     0     0
SMALL
USER_CHARGES

@<TRIPOS>ATOM
      1 C1         -2.3455    1.7134   -0.0720 C.3       1 <0>        -0.0459
      2 N1         -2.2113    0.2536   -0.1662 N.4       1 <0>        -0.3885
      3 C2         -3.5104   -0.3758    0.1050 C.3       1 <0>        -0.0021
      4 C3         -3.3754   -1.8956   -0.0115 C.3       1 <0>         0.0199
      5 N2         -2.3711   -2.3705    0.9509 N.3       1 <0>        -0.5345
      6 C4         -1.0709   -1.7301    0.7072 C.3       1 <0>         0.0194
      7 C5         -1.2249   -0.2116    0.8178 C.3       1 <0>        -0.0021
      8 C6         -2.2530   -3.8342    0.9093 C.3       1 <0>         0.0859
      9 C7         -3.6028   -4.4649    1.2575 C.3       1 <0>        -0.1098
     10 C8         -3.4797   -5.9893    1.2142 C.3       1 <0>        -0.1275
     11 C9         -2.4275   -6.4450    2.2271 C.3       1 <0>         0.1741
     12 C10        -1.0777   -5.8143    1.8790 C.3       1 <0>        -0.1265
     13 C11        -1.2007   -4.2899    1.9222 C.3       1 <0>        -0.1113
     14 N3         -2.3097   -7.9047    2.1857 N.pl3     1 <0>        -0.3780
     15 C12        -2.5444   -8.7436    3.2341 C.ar      1 <0>         0.3781
     16 C13        -2.3185  -10.0526    2.7688 C.ar      1 <0>        -0.3252
     17 C14        -1.9312   -9.9314    1.3634 C.2       1 <0>         0.1792
     18 N4         -1.9447   -8.6543    1.0624 N.2       1 <0>        -0.2396
     19 C15        -1.5916  -11.0458    0.4471 C.ar      1 <0>        -0.0119
     20 C16        -2.3701  -12.2027    0.4364 C.ar      1 <0>        -0.1215
     21 C17        -2.0537  -13.2400   -0.4159 C.ar      1 <0>        -0.1009
     22 C18        -0.9602  -13.1351   -1.2649 C.ar      1 <0>         0.1430
     23 C19        -0.1787  -11.9807   -1.2582 C.ar      1 <0>         0.0997
     24 C20        -0.4968  -10.9363   -0.4093 C.ar      1 <0>        -0.1516
     25 O1          0.8925  -11.8796   -2.0895 O.3       1 <0>        -0.3161
     26 C21         1.6484  -10.6684   -2.0293 C.3       1 <0>         0.0283
     27 N5         -0.6417  -14.1902   -2.1286 N.am      1 <0>        -0.6627
     28 C22        -1.5754  -15.1105   -2.4413 C.2       1 <0>         0.5150
     29 O2         -2.7170  -14.9713   -2.0559 O.2       1 <0>        -0.5145
     30 C23        -1.2010  -16.3124   -3.2698 C.3       1 <0>        -0.1339
     31 C24        -2.4352  -17.1922   -3.4787 C.3       1 <0>        -0.0647
     32 C25        -2.0608  -18.3941   -4.3072 C.ar      1 <0>        -0.0880
     33 C26        -2.1469  -18.3373   -5.6857 C.ar      1 <0>        -0.1164
     34 C27        -1.8035  -19.4398   -6.4456 C.ar      1 <0>        -0.1177
     35 C28        -1.3736  -20.5989   -5.8271 C.ar      1 <0>        -0.1214
     36 C29        -1.2867  -20.6554   -4.4486 C.ar      1 <0>        -0.1174
     37 C30        -1.6260  -19.5515   -3.6889 C.ar      1 <0>        -0.1160
     38 C31        -2.4928  -11.1220    3.6622 C.ar      1 <0>         0.5208
     39 N6         -2.8641  -10.8484    4.9093 N.ar      1 <0>        -0.6027
     40 C32        -3.0653   -9.6038    5.3037 C.ar      1 <0>         0.3906
     41 N7         -2.9144   -8.5716    4.5029 N.ar      1 <0>        -0.5791
     42 N8         -2.2843  -12.4257    3.2554 N.pl3     1 <0>        -0.8248
     43 H1         -1.3819    2.1807   -0.2746 H         1 <0>         0.1240
     44 H2         -3.0774    2.0588   -0.8022 H         1 <0>         0.1240
     45 H3         -2.6770    1.9839    0.9305 H         1 <0>         0.1233
     46 H4         -3.8367   -0.1162    1.1121 H         1 <0>         0.1381
     47 H5         -4.2446   -0.0199   -0.6178 H         1 <0>         0.1354
     48 H6         -4.3358   -2.3637    0.2044 H         1 <0>         0.1268
     49 H7         -3.0623   -2.1565   -1.0224 H         1 <0>         0.0605
     50 H8         -0.3500   -2.0773    1.4474 H         1 <0>         0.1271
     51 H9         -0.7198   -1.9882   -0.2919 H         1 <0>         0.0603
     52 H10        -0.2647    0.2661    0.6234 H         1 <0>         0.1352
     53 H11        -1.5629    0.0472    1.8212 H         1 <0>         0.1380
     54 H12        -1.9534   -4.1463   -0.0911 H         1 <0>         0.0566
     55 H13        -3.9024   -4.1528    2.2579 H         1 <0>         0.0823
     56 H14        -4.3524   -4.1402    0.5358 H         1 <0>         0.0718
     57 H15        -4.4413   -6.4386    1.4622 H         1 <0>         0.0767
     58 H16        -3.1801   -6.3014    0.2137 H         1 <0>         0.0784
     59 H17        -2.7271   -6.1329    3.2276 H         1 <0>         0.1123
     60 H18        -0.3280   -6.1389    2.6006 H         1 <0>         0.0762
     61 H19        -0.7781   -6.1264    0.8785 H         1 <0>         0.0778
     62 H20        -0.2391   -3.8406    1.6742 H         1 <0>         0.0719
     63 H21        -1.5003   -3.9778    2.9227 H         1 <0>         0.0825
     64 H22        -3.2210  -12.2867    1.0962 H         1 <0>         0.1378
     65 H23        -2.6575  -14.1354   -0.4227 H         1 <0>         0.1712
     66 H24         0.1050  -10.0395   -0.4060 H         1 <0>         0.1380
     67 H25         2.4723  -10.7185   -2.7412 H         1 <0>         0.1047
     68 H26         1.0040   -9.8252   -2.2781 H         1 <0>         0.0568
     69 H27         2.0455  -10.5376   -1.0227 H         1 <0>         0.0573
     70 H28         0.2510  -14.2589   -2.5019 H         1 <0>         0.4191
     71 H29        -0.8216  -15.9830   -4.2371 H         1 <0>         0.1006
     72 H30        -0.4304  -16.8843   -2.7528 H         1 <0>         0.1023
     73 H31        -2.8146  -17.5216   -2.5114 H         1 <0>         0.0824
     74 H32        -3.2058  -16.6204   -3.9957 H         1 <0>         0.0819
     75 H33        -2.4827  -17.4317   -6.1689 H         1 <0>         0.1213
     76 H34        -1.8714  -19.3957   -7.5226 H         1 <0>         0.1226
     77 H35        -1.1060  -21.4605   -6.4208 H         1 <0>         0.1223
     78 H36        -0.9512  -21.5611   -3.9654 H         1 <0>         0.1230
     79 H37        -1.5546  -19.5944   -2.6121 H         1 <0>         0.1219
     80 H38        -3.3665   -9.4266    6.3256 H         1 <0>         0.2061
     81 H39        -1.8302  -12.6055    2.4174 H         1 <0>         0.4152
     82 H40        -2.5921  -13.1613    3.8078 H         1 <0>         0.4128
     83 H41        -1.9040    0.0035   -1.0942 H         1 <0>         0.4221
@<TRIPOS>BOND
     1    1    2 1
     2    1   43 1
     3    1   44 1
     4    1   45 1
     5    2    7 1
     6    2    3 1
     7    2   83 1
     8    3    4 1
     9    3   46 1
    10    3   47 1
    11    4    5 1
    12    4   48 1
    13    4   49 1
    14    5    6 1
    15    5    8 1
    16    6    7 1
    17    6   50 1
    18    6   51 1
    19    7   52 1
    20    7   53 1
    21    8   13 1
    22    8    9 1
    23    8   54 1
    24    9   10 1
    25    9   55 1
    26    9   56 1
    27   10   11 1
    28   10   57 1
    29   10   58 1
    30   11   12 1
    31   11   14 1
    32   11   59 1
    33   12   13 1
    34   12   60 1
    35   12   61 1
    36   13   62 1
    37   13   63 1
    38   14   18 1
    39   14   15 1
    40   15   41 ar
    41   15   16 ar
    42   16   17 1
    43   16   38 ar
    44   17   18 2
    45   17   19 1
    46   19   24 ar
    47   19   20 ar
    48   20   21 ar
    49   20   64 1
    50   21   22 ar
    51   21   65 1
    52   22   23 ar
    53   22   27 1
    54   23   24 ar
    55   23   25 1
    56   24   66 1
    57   25   26 1
    58   26   67 1
    59   26   68 1
    60   26   69 1
    61   27   28 am
    62   27   70 1
    63   28   29 2
    64   28   30 1
    65   30   31 1
    66   30   71 1
    67   30   72 1
    68   31   32 1
    69   31   73 1
    70   31   74 1
    71   32   37 ar
    72   32   33 ar
    73   33   34 ar
    74   33   75 1
    75   34   35 ar
    76   34   76 1
    77   35   36 ar
    78   35   77 1
    79   36   37 ar
    80   36   78 1
    81   37   79 1
    82   38   39 ar
    83   38   42 1
    84   39   40 ar
    85   40   41 ar
    86   40   80 1
    87   42   81 1
    88   42   82 1
@<TRIPOS>MOLECULE
CHEMBL295601__1
   83    88     0     0     0
SMALL
USER_CHARGES

@<TRIPOS>ATOM
      1 C1         -2.3841    1.6480   -0.2171 C.3       1 <0>         0.0194
      2 N1         -2.2235    0.1898   -0.2932 N.3       1 <0>        -0.5435
      3 C2         -3.5126   -0.4923   -0.1116 C.3       1 <0>         0.0253
      4 C3         -3.3122   -2.0024   -0.2569 C.3       1 <0>        -0.0067
      5 N2         -2.3469   -2.4673    0.7479 N.4       1 <0>        -0.3838
      6 C4         -1.0576   -1.7956    0.5383 C.3       1 <0>        -0.0066
      7 C5         -1.2392   -0.2837    0.6902 C.3       1 <0>         0.0254
      8 C6         -2.1685   -3.9198    0.6198 C.3       1 <0>         0.0237
      9 C7         -3.5110   -4.6199    0.8399 C.3       1 <0>        -0.1365
     10 C8         -3.3251   -6.1327    0.7065 C.3       1 <0>        -0.1260
     11 C9         -2.3196   -6.6173    1.7530 C.3       1 <0>         0.1716
     12 C10        -0.9771   -5.9172    1.5329 C.3       1 <0>        -0.1252
     13 C11        -1.1630   -4.4044    1.6663 C.3       1 <0>        -0.1364
     14 N3         -2.1417   -8.0658    1.6252 N.pl3     1 <0>        -0.3836
     15 C12        -2.4067   -8.9806    2.6004 C.ar      1 <0>         0.3795
     16 C13        -2.1010  -10.2469    2.0671 C.ar      1 <0>        -0.3252
     17 C14        -1.6335  -10.0184    0.7000 C.2       1 <0>         0.1889
     18 N4         -1.6792   -8.7253    0.4816 N.2       1 <0>        -0.2438
     19 C15        -1.1945  -11.0564   -0.2627 C.ar      1 <0>        -0.0174
     20 C16        -1.9244  -12.2370   -0.3974 C.ar      1 <0>        -0.1206
     21 C17        -1.5155  -13.2031   -1.2929 C.ar      1 <0>        -0.1013
     22 C18        -0.3770  -13.0030   -2.0619 C.ar      1 <0>         0.1460
     23 C19         0.3562  -11.8246   -1.9311 C.ar      1 <0>         0.0999
     24 C20        -0.0544  -10.8511   -1.0387 C.ar      1 <0>        -0.1506
     25 O1          1.4715  -11.6302   -2.6842 O.3       1 <0>        -0.3154
     26 C21         2.1736  -10.3996   -2.4981 C.3       1 <0>         0.0283
     27 N5          0.0354  -13.9862   -2.9697 N.am      1 <0>        -0.6629
     28 C22        -0.8401  -14.9161   -3.3998 C.2       1 <0>         0.5155
     29 O2         -2.0079  -14.8437   -3.0798 O.2       1 <0>        -0.5142
     30 C23        -0.3684  -16.0460   -4.2784 C.3       1 <0>        -0.1342
     31 C24        -1.5515  -16.9532   -4.6218 C.3       1 <0>        -0.0645
     32 C25        -1.0797  -18.0831   -5.5004 C.ar      1 <0>        -0.0886
     33 C26        -1.0833  -17.9375   -6.8750 C.ar      1 <0>        -0.1164
     34 C27        -0.6506  -18.9739   -7.6810 C.ar      1 <0>        -0.1175
     35 C28        -0.2138  -20.1557   -7.1122 C.ar      1 <0>        -0.1210
     36 C29        -0.2093  -20.3009   -5.7375 C.ar      1 <0>        -0.1173
     37 C30        -0.6380  -19.2630   -4.9314 C.ar      1 <0>        -0.1160
     38 C31        -2.2872  -11.3790    2.8769 C.ar      1 <0>         0.5223
     39 N6         -2.7447  -11.2026    4.1128 N.ar      1 <0>        -0.6006
     40 C32        -3.0189   -9.9950    4.5729 C.ar      1 <0>         0.3936
     41 N7         -2.8603   -8.9070    3.8515 N.ar      1 <0>        -0.5820
     42 N8         -2.0026  -12.6444    2.4011 N.pl3     1 <0>        -0.8228
     43 H1         -1.4277    2.1300   -0.4199 H         1 <0>         0.0843
     44 H2         -3.1178    1.9718   -0.9553 H         1 <0>         0.0840
     45 H3         -2.7259    1.9243    0.7804 H         1 <0>         0.0396
     46 H4         -3.9043   -0.2713    0.8813 H         1 <0>         0.0605
     47 H5         -4.2176   -0.1446   -0.8667 H         1 <0>         0.1239
     48 H6         -4.2646   -2.5112   -0.1084 H         1 <0>         0.1375
     49 H7         -2.9334   -2.2243   -1.2546 H         1 <0>         0.1381
     50 H8         -0.3385   -2.1511    1.2763 H         1 <0>         0.1372
     51 H9         -0.6903   -2.0185   -0.4635 H         1 <0>         0.1380
     52 H10        -0.2856    0.2161    0.5200 H         1 <0>         0.1237
     53 H11        -1.5934   -0.0593    1.6963 H         1 <0>         0.0605
     54 H12        -1.7960   -4.1536   -0.3776 H         1 <0>         0.1416
     55 H13        -3.8834   -4.3861    1.8372 H         1 <0>         0.0916
     56 H14        -4.2273   -4.2747    0.0944 H         1 <0>         0.0965
     57 H15        -4.2815   -6.6315    0.8633 H         1 <0>         0.0906
     58 H16        -2.9526   -6.3665   -0.2909 H         1 <0>         0.0898
     59 H17        -2.6921   -6.3835    2.7503 H         1 <0>         0.1146
     60 H18        -0.2608   -6.2624    2.2784 H         1 <0>         0.0901
     61 H19        -0.6047   -6.1509    0.5355 H         1 <0>         0.0892
     62 H20        -0.2065   -3.9056    1.5095 H         1 <0>         0.0962
     63 H21        -1.5354   -4.1706    2.6636 H         1 <0>         0.0917
     64 H22        -2.8101  -12.3950    0.2000 H         1 <0>         0.1377
     65 H23        -2.0817  -14.1170   -1.3957 H         1 <0>         0.1718
     66 H24         0.5099   -9.9357   -0.9393 H         1 <0>         0.1380
     67 H25         3.0409  -10.3727   -3.1578 H         1 <0>         0.1056
     68 H26         1.5127   -9.5651   -2.7326 H         1 <0>         0.0568
     69 H27         2.5028  -10.3222   -1.4619 H         1 <0>         0.0571
     70 H28         0.9513  -13.9979   -3.2889 H         1 <0>         0.4197
     71 H29         0.0562  -15.6395   -5.1963 H         1 <0>         0.1011
     72 H30         0.3912  -16.6233   -3.7513 H         1 <0>         0.1026
     73 H31        -1.9761  -17.3597   -3.7039 H         1 <0>         0.0822
     74 H32        -2.3111  -16.3759   -5.1489 H         1 <0>         0.0819
     75 H33        -1.4246  -17.0142   -7.3194 H         1 <0>         0.1213
     76 H34        -0.6541  -18.8604   -8.7550 H         1 <0>         0.1228
     77 H35         0.1237  -20.9657   -7.7419 H         1 <0>         0.1225
     78 H36         0.1316  -21.2243   -5.2932 H         1 <0>         0.1230
     79 H37        -0.6310  -19.3750   -3.8573 H         1 <0>         0.1218
     80 H38        -3.3889   -9.8973    5.5828 H         1 <0>         0.2071
     81 H39        -1.4912  -12.7516    1.5839 H         1 <0>         0.4160
     82 H40        -2.3142  -13.4257    2.8843 H         1 <0>         0.4140
     83 H41        -2.6922   -2.2514    1.6710 H         1 <0>         0.4186
@<TRIPOS>BOND
     1    1    2 1
     2    1   43 1
     3    1   44 1
     4    1   45 1
     5    2    7 1
     6    2    3 1
     7    3    4 1
     8    3   46 1
     9    3   47 1
    10    4    5 1
    11    4   48 1
    12    4   49 1
    13    5    6 1
    14    5    8 1
    15    5   83 1
    16    6    7 1
    17    6   50 1
    18    6   51 1
    19    7   52 1
    20    7   53 1
    21    8   13 1
    22    8    9 1
    23    8   54 1
    24    9   10 1
    25    9   55 1
    26    9   56 1
    27   10   11 1
    28   10   57 1
    29   10   58 1
    30   11   12 1
    31   11   14 1
    32   11   59 1
    33   12   13 1
    34   12   60 1
    35   12   61 1
    36   13   62 1
    37   13   63 1
    38   14   18 1
    39   14   15 1
    40   15   41 ar
    41   15   16 ar
    42   16   17 1
    43   16   38 ar
    44   17   18 2
    45   17   19 1
    46   19   24 ar
    47   19   20 ar
    48   20   21 ar
    49   20   64 1
    50   21   22 ar
    51   21   65 1
    52   22   23 ar
    53   22   27 1
    54   23   24 ar
    55   23   25 1
    56   24   66 1
    57   25   26 1
    58   26   67 1
    59   26   68 1
    60   26   69 1
    61   27   28 am
    62   27   70 1
    63   28   29 2
    64   28   30 1
    65   30   31 1
    66   30   71 1
    67   30   72 1
    68   31   32 1
    69   31   73 1
    70   31   74 1
    71   32   37 ar
    72   32   33 ar
    73   33   34 ar
    74   33   75 1
    75   34   35 ar
    76   34   76 1
    77   35   36 ar
    78   35   77 1
    79   36   37 ar
    80   36   78 1
    81   37   79 1
    82   38   39 ar
    83   38   42 1
    84   39   40 ar
    85   40   41 ar
    86   40   80 1
    87   42   81 1
    88   42   82 1
@<TRIPOS>MOLECULE
CHEMBL320967
   48    52     0     0     0
SMALL
USER_CHARGES

@<TRIPOS>ATOM
      1 C1          2.6832   -0.2413    1.3972 C.3       1 <0>        -0.1114
      2 C2          1.5065   -0.8859    0.7109 C.ar      1 <0>        -0.0736
      3 C3          1.6959   -1.6159   -0.4466 C.ar      1 <0>        -0.1108
      4 C4          0.6174   -2.2083   -1.0770 C.ar      1 <0>        -0.1008
      5 C5         -0.6549   -2.0726   -0.5517 C.ar      1 <0>        -0.1124
      6 C6         -0.8518   -1.3440    0.6057 C.ar      1 <0>        -0.0116
      7 C7          0.2317   -0.7516    1.2446 C.ar      1 <0>         0.1567
      8 N1          0.0374   -0.0180    2.4189 N.pl3     1 <0>        -0.6503
      9 C8         -0.3521   -0.6613    3.5801 C.2       1 <0>         0.4766
     10 C9         -0.4458    0.0835    4.8337 C.2       1 <0>        -0.0666
     11 C10        -0.2246    1.3900    5.1932 C.2       1 <0>         0.0345
     12 N2         -0.4754    1.4945    6.5006 N.2       1 <0>        -0.4670
     13 C11        -0.8398    0.3300    6.9770 C.2       1 <0>         0.1956
     14 N3         -0.8372   -0.5763    5.9841 N.pl3     1 <0>        -0.3653
     15 C12        -1.1301   -1.9331    5.9117 C.ar      1 <0>         0.1077
     16 C13        -1.5261   -2.6247    7.0469 C.ar      1 <0>        -0.1997
     17 C14        -1.8172   -3.9777    6.9680 C.ar      1 <0>         0.2325
     18 C15        -1.7135   -4.6466    5.7509 C.ar      1 <0>        -0.1725
     19 C16        -1.3218   -3.9718    4.6180 C.ar      1 <0>        -0.0332
     20 C17        -1.0245   -2.6047    4.6830 C.ar      1 <0>         0.0926
     21 N4         -0.6440   -1.9433    3.5569 N.2       1 <0>        -0.5251
     22 N5         -2.2157   -4.6728    8.1134 N.pl3     1 <0>        -0.6281
     23 C18        -2.4598   -3.9668    9.3812 C.3       1 <0>         0.0853
     24 C19        -3.8317   -4.3934    9.9158 C.3       1 <0>         0.0459
     25 O1         -3.8961   -5.8209    9.9613 O.3       1 <0>        -0.3776
     26 C20        -3.7786   -6.4531    8.6845 C.3       1 <0>         0.0449
     27 C21        -2.4093   -6.1312    8.0854 C.3       1 <0>         0.0850
     28 Cl1        -2.4488   -1.1740    1.2647 Cl        1 <0>        -0.0555
     29 H1          3.1098   -0.9384    2.1184 H         1 <0>         0.0736
     30 H2          3.4375    0.0208    0.6553 H         1 <0>         0.0724
     31 H3          2.3534    0.6599    1.9141 H         1 <0>         0.0666
     32 H4          2.6879   -1.7236   -0.8599 H         1 <0>         0.1323
     33 H5          0.7687   -2.7780   -1.9819 H         1 <0>         0.1339
     34 H6         -1.4953   -2.5363   -1.0468 H         1 <0>         0.1350
     35 H7          0.1756    0.9421    2.4195 H         1 <0>         0.4211
     36 H8          0.0940    2.1874    4.5382 H         1 <0>         0.1840
     37 H9         -1.1016    0.1296    8.0055 H         1 <0>         0.2128
     38 H10        -1.6073   -2.1092    7.9925 H         1 <0>         0.1309
     39 H11        -1.9414   -5.7009    5.6963 H         1 <0>         0.1358
     40 H12        -1.2431   -4.4968    3.6775 H         1 <0>         0.1424
     41 H13        -1.6865   -4.2303   10.1029 H         1 <0>         0.0747
     42 H14        -2.4511   -2.8905    9.2097 H         1 <0>         0.0905
     43 H15        -3.9731   -3.9905   10.9186 H         1 <0>         0.1071
     44 H16        -4.6130   -4.0146    9.2569 H         1 <0>         0.0566
     45 H17        -3.8817   -7.5319    8.8015 H         1 <0>         0.1077
     46 H18        -4.5597   -6.0817    8.0211 H         1 <0>         0.0567
     47 H19        -2.3673   -6.4875    7.0561 H         1 <0>         0.0952
     48 H20        -1.6309   -6.6163    8.6744 H         1 <0>         0.0747
@<TRIPOS>BOND
     1    1    2 1
     2    1   29 1
     3    1   30 1
     4    1   31 1
     5    2    7 ar
     6    2    3 ar
     7    3    4 ar
     8    3   32 1
     9    4    5 ar
    10    4   33 1
    11    5    6 ar
    12    5   34 1
    13    6    7 ar
    14    6   28 1
    15    7    8 1
    16    8    9 1
    17    8   35 1
    18    9   21 2
    19    9   10 1
    20   10   14 1
    21   10   11 2
    22   11   12 1
    23   11   36 1
    24   12   13 2
    25   13   14 1
    26   13   37 1
    27   14   15 1
    28   15   20 ar
    29   15   16 ar
    30   16   17 ar
    31   16   38 1
    32   17   18 ar
    33   17   22 1
    34   18   19 ar
    35   18   39 1
    36   19   20 ar
    37   19   40 1
    38   20   21 1
    39   22   27 1
    40   22   23 1
    41   23   24 1
    42   23   41 1
    43   23   42 1
    44   24   25 1
    45   24   43 1
    46   24   44 1
    47   25   26 1
    48   26   27 1
    49   26   45 1
    50   26   46 1
    51   27   47 1
    52   27   48 1
@<TRIPOS>MOLECULE
CHEMBL260861
   67    71     0     0     0
SMALL
USER_CHARGES

@<TRIPOS>ATOM
      1 C1          0.3357    1.5711    0.1878 C.3       1 <0>         0.0271
      2 O1          0.5840    0.1715    0.0412 O.3       1 <0>        -0.3117
      3 C2          0.7332   -0.5514    1.1822 C.ar      1 <0>         0.1930
      4 C3          0.9820   -1.9134    1.1120 C.ar      1 <0>        -0.2247
      5 C4          1.1349   -2.6519    2.2781 C.ar      1 <0>         0.2459
      6 C5          1.0385   -2.0251    3.5135 C.ar      1 <0>        -0.2076
      7 C6          0.7897   -0.6630    3.5818 C.ar      1 <0>         0.1922
      8 C7          0.6423    0.0747    2.4165 C.ar      1 <0>        -0.3205
      9 O2          0.6948   -0.0496    4.7907 O.3       1 <0>        -0.3102
     10 C8          0.4370    1.3560    4.7865 C.3       1 <0>         0.0269
     11 N1          1.3852   -4.0247    2.2084 N.pl3     1 <0>        -0.6330
     12 C9          2.1131   -4.6518    3.2163 C.2       1 <0>         0.4138
     13 C10         2.3439   -6.0431    3.3257 C.2       1 <0>        -0.3470
     14 C11         3.1210   -6.2379    4.4853 C.2       1 <0>         0.3797
     15 N2          3.6191   -7.3347    5.0566 N.2       1 <0>        -0.5223
     16 C12         4.3320   -7.2652    6.1636 C.2       1 <0>         0.2894
     17 C13         4.5792   -6.0333    6.7605 C.2       1 <0>        -0.3305
     18 C14         4.0681   -4.8888    6.1776 C.2       1 <0>         0.5040
     19 N3          3.3338   -5.0040    5.0299 N.pl3     1 <0>        -0.3305
     20 N4          2.7050   -4.0515    4.2210 N.2       1 <0>        -0.3500
     21 N5          4.2941   -3.6540    6.7434 N.pl3     1 <0>        -0.6863
     22 C15         5.0822   -3.5450    7.9736 C.3       1 <0>         0.1570
     23 H1          5.8712   -4.2970    7.9674 H         1 <0>         0.1069
     24 C16         5.7069   -2.1509    8.0573 C.3       1 <0>        -0.0828
     25 C17         6.6955   -1.9751    6.9336 C.ar      1 <0>        -0.0913
     26 C18         8.0187   -2.3320    7.1150 C.ar      1 <0>        -0.1162
     27 C19         8.9256   -2.1708    6.0843 C.ar      1 <0>        -0.1171
     28 C20         8.5093   -1.6531    4.8720 C.ar      1 <0>        -0.1194
     29 C21         7.1859   -1.2971    4.6903 C.ar      1 <0>        -0.1147
     30 C22         6.2782   -1.4624    5.7196 C.ar      1 <0>        -0.1091
     31 C23         4.1729   -3.7699    9.1833 C.3       1 <0>         0.0566
     32 O3          3.2093   -2.7173    9.2572 O.3       1 <0>        -0.5651
     33 C24         4.8803   -8.5242    6.7843 C.3       1 <0>        -0.1279
     34 C25         3.8732   -9.5568    7.2945 C.3       1 <0>        -0.1525
     35 C26         4.6756   -9.8348    6.0218 C.3       1 <0>        -0.1525
     36 C27         1.8672   -7.0798    2.4121 C.2       1 <0>         0.6186
     37 O4          2.5483   -7.4111    1.4586 O.2       1 <0>        -0.5362
     38 N6          0.6739   -7.6689    2.6249 N.am      1 <0>        -0.8456
     39 H2          1.1663    2.0336    0.7210 H         1 <0>         0.0559
     40 H3          0.2369    2.0277   -0.7970 H         1 <0>         0.1028
     41 H4         -0.5855    1.7196    0.7512 H         1 <0>         0.0562
     42 H5          1.0565   -2.4001    0.1508 H         1 <0>         0.1361
     43 H6          1.1569   -2.5987    4.4209 H         1 <0>         0.1459
     44 H7          0.4529    1.1366    2.4703 H         1 <0>         0.1344
     45 H8          1.2398    1.8710    4.2588 H         1 <0>         0.0554
     46 H9         -0.5108    1.5500    4.2844 H         1 <0>         0.0558
     47 H10         0.3854    1.7190    5.8129 H         1 <0>         0.1018
     48 H11         1.0519   -4.5410    1.4578 H         1 <0>         0.4278
     49 H12         5.1623   -5.9719    7.6674 H         1 <0>         0.1606
     50 H13         3.9315   -2.8562    6.3275 H         1 <0>         0.4200
     51 H14         4.9244   -1.3966    7.9742 H         1 <0>         0.0917
     52 H15         6.2192   -2.0391    9.0129 H         1 <0>         0.0956
     53 H16         8.3439   -2.7364    8.0622 H         1 <0>         0.1223
     54 H17         9.9594   -2.4489    6.2262 H         1 <0>         0.1227
     55 H18         9.2179   -1.5265    4.0669 H         1 <0>         0.1215
     56 H19         6.8608   -0.8924    3.7433 H         1 <0>         0.1207
     57 H20         5.2435   -1.1877    5.5765 H         1 <0>         0.1169
     58 H21         3.6595   -4.7258    9.0793 H         1 <0>         0.0560
     59 H22         4.7735   -3.7772   10.0929 H         1 <0>         0.0646
     60 H23         2.5978   -2.7954   10.0023 H         1 <0>         0.3842
     61 H24         5.8086   -8.4070    7.3435 H         1 <0>         0.1295
     62 H25         4.1388  -10.1191    8.1898 H         1 <0>         0.1036
     63 H26         2.8141   -9.3255    7.1813 H         1 <0>         0.0969
     64 H27         4.1443   -9.7864    5.0713 H         1 <0>         0.1114
     65 H28         5.4690  -10.5800    6.0797 H         1 <0>         0.1005
     66 H29         0.1313   -7.4050    3.3845 H         1 <0>         0.4009
     67 H30         0.3576   -8.3568    2.0186 H         1 <0>         0.4018
@<TRIPOS>BOND
     1    1    2 1
     2    1   39 1
     3    1   40 1
     4    1   41 1
     5    2    3 1
     6    3    8 ar
     7    3    4 ar
     8    4    5 ar
     9    4   42 1
    10    5    6 ar
    11    5   11 1
    12    6    7 ar
    13    6   43 1
    14    7    8 ar
    15    7    9 1
    16    8   44 1
    17    9   10 1
    18   10   45 1
    19   10   46 1
    20   10   47 1
    21   11   12 1
    22   11   48 1
    23   12   20 2
    24   12   13 1
    25   13   14 2
    26   13   36 1
    27   14   19 1
    28   14   15 1
    29   15   16 2
    30   16   17 1
    31   16   33 1
    32   17   18 2
    33   17   49 1
    34   18   19 1
    35   18   21 1
    36   19   20 1
    37   21   22 1
    38   21   50 1
    39   22   23 1
    40   22   24 1
    41   22   31 1
    42   24   25 1
    43   24   51 1
    44   24   52 1
    45   25   30 ar
    46   25   26 ar
    47   26   27 ar
    48   26   53 1
    49   27   28 ar
    50   27   54 1
    51   28   29 ar
    52   28   55 1
    53   29   30 ar
    54   29   56 1
    55   30   57 1
    56   31   32 1
    57   31   58 1
    58   31   59 1
    59   32   60 1
    60   33   35 1
    61   33   34 1
    62   33   61 1
    63   34   35 1
    64   34   62 1
    65   34   63 1
    66   35   64 1
    67   35   65 1
    68   36   37 2
    69   36   38 am
    70   38   66 1
    71   38   67 1
@<TRIPOS>MOLECULE
CHEMBL339037
   42    44     0     0     0
SMALL
USER_CHARGES

@<TRIPOS>ATOM
      1 C1          0.2820    1.4862    0.1575 C.3       1 <0>        -0.1159
      2 C2          0.1286   -0.0087    0.0434 C.ar      1 <0>        -0.0763
      3 C3          1.1198   -0.8428    0.5270 C.ar      1 <0>        -0.1178
      4 C4          0.9821   -2.2132    0.4243 C.ar      1 <0>        -0.0582
      5 C5         -0.1535   -2.7533   -0.1653 C.ar      1 <0>         0.1234
      6 C6         -1.1473   -1.9126   -0.6500 C.ar      1 <0>        -0.0821
      7 C7         -1.0058   -0.5432   -0.5395 C.ar      1 <0>        -0.1186
      8 C8         -2.3812   -2.4942   -1.2906 C.3       1 <0>        -0.1125
      9 N1         -0.2959   -4.1403   -0.2712 N.am      1 <0>        -0.6711
     10 C9         -0.2648   -4.9075    0.8365 C.2       1 <0>         0.6168
     11 O1         -0.0306   -4.4034    1.9196 O.2       1 <0>        -0.5020
     12 C10        -0.5125   -6.3460    0.7372 C.2       1 <0>        -0.3035
     13 C11        -0.5353   -7.3126    1.7331 C.2       1 <0>         0.1668
     14 N2         -0.7877   -8.5381    1.3481 N.2       1 <0>        -0.5278
     15 C12        -1.0075   -8.8315    0.0796 C.2       1 <0>         0.2946
     16 S1         -0.8770   -7.3445   -0.6977 S.3       1 <0>         0.1561
     17 N3         -1.2850  -10.0676   -0.4778 N.am      1 <0>        -0.6164
     18 C13        -1.3574  -11.1602    0.3080 C.2       1 <0>         0.5373
     19 O2         -1.1795  -11.0602    1.5034 O.2       1 <0>        -0.4588
     20 C14        -1.6595  -12.5061   -0.2988 C.3       1 <0>        -0.1978
     21 C15        -3.0108  -13.1429    0.0318 C.3       1 <0>        -0.1484
     22 C16        -1.7283  -13.7076    0.6459 C.3       1 <0>        -0.1413
     23 C17         2.0631   -3.1215    0.9511 C.3       1 <0>        -0.1098
     24 H1         -0.1421    1.8238    1.1032 H         1 <0>         0.0721
     25 H2          1.3397    1.7468    0.1200 H         1 <0>         0.0675
     26 H3         -0.2407    1.9691   -0.6681 H         1 <0>         0.0672
     27 H4          2.0028   -0.4222    0.9850 H         1 <0>         0.1262
     28 H5         -1.7800    0.1109   -0.9125 H         1 <0>         0.1264
     29 H6         -3.1787   -2.5589   -0.5504 H         1 <0>         0.0732
     30 H7         -2.6998   -1.8538   -2.1130 H         1 <0>         0.0714
     31 H8         -2.1574   -3.4906   -1.6716 H         1 <0>         0.0608
     32 H9         -0.4170   -4.5504   -1.1419 H         1 <0>         0.4047
     33 H10        -0.3544   -7.0670    2.7692 H         1 <0>         0.1912
     34 H11        -1.4273  -10.1476   -1.4339 H         1 <0>         0.4304
     35 H12        -1.2548  -12.6732   -1.2970 H         1 <0>         0.1325
     36 H13        -3.6813  -12.5883    0.6883 H         1 <0>         0.1023
     37 H14        -3.4955  -13.7290   -0.7489 H         1 <0>         0.1111
     38 H15        -1.3692  -14.6653    0.2691 H         1 <0>         0.1100
     39 H16        -1.5550  -13.5246    1.7064 H         1 <0>         0.1111
     40 H17         1.9308   -3.2594    2.0243 H         1 <0>         0.0849
     41 H18         2.0018   -4.0877    0.4504 H         1 <0>         0.0567
     42 H19         3.0386   -2.6743    0.7598 H         1 <0>         0.0635
@<TRIPOS>BOND
     1    1    2 1
     2    1   24 1
     3    1   25 1
     4    1   26 1
     5    2    7 ar
     6    2    3 ar
     7    3    4 ar
     8    3   27 1
     9    4    5 ar
    10    4   23 1
    11    5    6 ar
    12    5    9 1
    13    6    7 ar
    14    6    8 1
    15    7   28 1
    16    8   29 1
    17    8   30 1
    18    8   31 1
    19    9   10 am
    20    9   32 1
    21   10   11 2
    22   10   12 1
    23   12   16 1
    24   12   13 2
    25   13   14 1
    26   13   33 1
    27   14   15 2
    28   15   16 1
    29   15   17 1
    30   17   18 am
    31   17   34 1
    32   18   19 2
    33   18   20 1
    34   20   22 1
    35   20   21 1
    36   20   35 1
    37   21   22 1
    38   21   36 1
    39   21   37 1
    40   22   38 1
    41   22   39 1
    42   23   40 1
    43   23   41 1
    44   23   42 1
@<TRIPOS>MOLECULE
CHEMBL86742
   58    62     0     0     0
SMALL
USER_CHARGES

@<TRIPOS>ATOM
      1 C1         -1.4169    1.1770    0.2225 C.3       1 <0>        -0.1166
      2 C2         -0.7173   -0.1517    0.0957 C.ar      1 <0>        -0.0857
      3 C3         -0.7323   -0.8289   -1.1084 C.ar      1 <0>        -0.1058
      4 C4         -0.0909   -2.0479   -1.2262 C.ar      1 <0>        -0.1078
      5 C5          0.5685   -2.5939   -0.1399 C.ar      1 <0>        -0.1070
      6 C6          0.5880   -1.9217    1.0673 C.ar      1 <0>        -0.0245
      7 C7         -0.0521   -0.6936    1.1872 C.ar      1 <0>         0.1459
      8 N1         -0.0305   -0.0077    2.4064 N.am      1 <0>        -0.6725
      9 C8         -0.4050   -0.6348    3.5391 C.2       1 <0>         0.5618
     10 O1         -0.6645   -1.8228    3.5191 O.2       1 <0>        -0.4981
     11 C9         -0.5000    0.1194    4.8024 C.ar      1 <0>        -0.1352
     12 C10        -0.2088    1.4905    4.8363 C.ar      1 <0>        -0.0715
     13 C11        -0.2893    2.2027    5.9869 C.ar      1 <0>        -0.0777
     14 C12        -0.6728    1.5855    7.2037 C.ar      1 <0>         0.1504
     15 C13        -0.9623    0.2002    7.1438 C.ar      1 <0>        -0.1735
     16 C14        -0.8876   -0.5211    5.9845 C.ar      1 <0>         0.0161
     17 S1         -1.3875   -0.1710    8.8286 S.3       1 <0>         0.0054
     18 C15        -1.1627    1.4764    9.4842 C.2       1 <0>         0.4014
     19 N2         -0.7971    2.1548    8.4183 N.2       1 <0>        -0.5100
     20 N3         -1.3308    1.9232   10.7791 N.pl3     1 <0>        -0.5936
     21 C16        -1.2091    3.2794   11.0689 C.ar      1 <0>         0.3668
     22 C17        -1.4905    3.7381   12.3515 C.ar      1 <0>        -0.2028
     23 C18        -1.3655    5.0881   12.6257 C.ar      1 <0>        -0.0415
     24 C19        -0.9617    5.9372   11.6037 C.ar      1 <0>        -0.1984
     25 C20        -0.6987    5.4134   10.3538 C.ar      1 <0>         0.1746
     26 N4         -0.8213    4.1201   10.1226 N.ar      1 <0>        -0.4542
     27 C21        -0.2601    6.3296    9.2407 C.3       1 <0>         0.1069
     28 N5          1.2068    6.3381    9.1628 N.3       1 <0>        -0.5247
     29 C22         1.7946    6.9506   10.3631 C.3       1 <0>         0.0138
     30 C23         3.3212    6.8849   10.2675 C.3       1 <0>         0.0644
     31 O2          3.7469    7.5324    9.0655 O.3       1 <0>        -0.3849
     32 C24         3.1938    6.9611    7.8768 C.3       1 <0>         0.0637
     33 C25         1.6660    7.0275    7.9482 C.3       1 <0>         0.0209
     34 Cl1         1.4152   -2.6075    2.4308 Cl        1 <0>        -0.0444
     35 H1         -0.7239    1.9785   -0.0332 H         1 <0>         0.0756
     36 H2         -2.2702    1.2045   -0.4552 H         1 <0>         0.0746
     37 H3         -1.7628    1.3092    1.2477 H         1 <0>         0.0685
     38 H4         -1.2463   -0.4056   -1.9587 H         1 <0>         0.1333
     39 H5         -0.1050   -2.5753   -2.1685 H         1 <0>         0.1346
     40 H6          1.0683   -3.5465   -0.2351 H         1 <0>         0.1364
     41 H7          0.2539    0.9192    2.4365 H         1 <0>         0.4109
     42 H8          0.0865    1.9902    3.9256 H         1 <0>         0.1324
     43 H9         -0.0570    3.2574    5.9762 H         1 <0>         0.1391
     44 H10        -1.1212   -1.5755    5.9821 H         1 <0>         0.1454
     45 H11        -1.5337    1.2922   11.4874 H         1 <0>         0.4399
     46 H12        -1.8028    3.0495   13.1228 H         1 <0>         0.1386
     47 H13        -1.5776    5.4732   13.6122 H         1 <0>         0.1420
     48 H14        -0.8547    6.9965   11.7849 H         1 <0>         0.1343
     49 H15        -0.6721    5.9761    8.2954 H         1 <0>         0.0974
     50 H16        -0.6193    7.3395    9.4385 H         1 <0>         0.0544
     51 H17         1.4787    7.9915   10.4325 H         1 <0>         0.0450
     52 H18         1.4617    6.4087   11.2484 H         1 <0>         0.0857
     53 H19         3.7617    7.3885   11.1279 H         1 <0>         0.0982
     54 H20         3.6404    5.8428   10.2522 H         1 <0>         0.0586
     55 H21         3.5423    7.5198    7.0082 H         1 <0>         0.0996
     56 H22         3.5093    5.9212    7.7920 H         1 <0>         0.0604
     57 H23         1.2391    6.5419    7.0706 H         1 <0>         0.0891
     58 H24         1.3480    8.0697    7.9789 H         1 <0>         0.0446
@<TRIPOS>BOND
     1    1    2 1
     2    1   35 1
     3    1   36 1
     4    1   37 1
     5    2    7 ar
     6    2    3 ar
     7    3    4 ar
     8    3   38 1
     9    4    5 ar
    10    4   39 1
    11    5    6 ar
    12    5   40 1
    13    6    7 ar
    14    6   34 1
    15    7    8 1
    16    8    9 am
    17    8   41 1
    18    9   10 2
    19    9   11 1
    20   11   16 ar
    21   11   12 ar
    22   12   13 ar
    23   12   42 1
    24   13   14 ar
    25   13   43 1
    26   14   19 1
    27   14   15 ar
    28   15   16 ar
    29   15   17 1
    30   16   44 1
    31   17   18 1
    32   18   19 2
    33   18   20 1
    34   20   21 1
    35   20   45 1
    36   21   26 ar
    37   21   22 ar
    38   22   23 ar
    39   22   46 1
    40   23   24 ar
    41   23   47 1
    42   24   25 ar
    43   24   48 1
    44   25   26 ar
    45   25   27 1
    46   27   28 1
    47   27   49 1
    48   27   50 1
    49   28   33 1
    50   28   29 1
    51   29   30 1
    52   29   51 1
    53   29   52 1
    54   30   31 1
    55   30   53 1
    56   30   54 1
    57   31   32 1
    58   32   33 1
    59   32   55 1
    60   32   56 1
    61   33   57 1
    62   33   58 1
@<TRIPOS>MOLECULE
CHEMBL86742__1
   59    63     0     0     0
SMALL
USER_CHARGES

@<TRIPOS>ATOM
      1 C1          0.7573    0.9267    0.4512 C.3       1 <0>        -0.1165
      2 C2          1.4095   -0.4312    0.4946 C.ar      1 <0>        -0.0833
      3 C3          1.6170   -1.1363   -0.6752 C.ar      1 <0>        -0.1043
      4 C4          2.2152   -2.3821   -0.6369 C.ar      1 <0>        -0.1020
      5 C5          2.6084   -2.9271    0.5719 C.ar      1 <0>        -0.1056
      6 C6          2.4043   -2.2273    1.7458 C.ar      1 <0>        -0.0230
      7 C7          1.8074   -0.9723    1.7096 C.ar      1 <0>         0.1378
      8 N1          1.6035   -0.2585    2.8954 N.am      1 <0>        -0.6668
      9 C8          0.9740   -0.8429    3.9340 C.2       1 <0>         0.5531
     10 O1          0.6731   -2.0200    3.8784 O.2       1 <0>        -0.4866
     11 C9          0.6502   -0.0553    5.1377 C.ar      1 <0>        -0.0961
     12 C10         0.9871    1.3037    5.2108 C.ar      1 <0>        -0.0708
     13 C11         0.6992    2.0461    6.3079 C.ar      1 <0>        -0.0617
     14 C12         0.0437    1.4739    7.4266 C.ar      1 <0>         0.1162
     15 C13        -0.2867    0.0999    7.3286 C.ar      1 <0>        -0.1564
     16 C14        -0.0031   -0.6515    6.2220 C.ar      1 <0>         0.0064
     17 S1         -1.0699   -0.2136    8.8924 S.3       1 <0>         0.1178
     18 C15        -0.9157    1.4391    9.5552 C.2       1 <0>         0.3403
     19 N2         -0.3066    2.0767    8.5793 N.2       1 <0>        -0.5345
     20 N3         -1.3308    1.9232   10.7791 N.pl3     1 <0>        -0.5889
     21 C16        -1.2091    3.2794   11.0689 C.ar      1 <0>         0.4208
     22 C17        -0.8126    4.1643   10.0716 C.ar      1 <0>        -0.1684
     23 C18        -0.6958    5.5092   10.3732 C.ar      1 <0>         0.0332
     24 C19        -0.9805    5.9253   11.6671 C.ar      1 <0>        -0.1472
     25 C20        -1.3688    4.9920   12.6074 C.ar      1 <0>         0.1866
     26 N4         -1.4770    3.7159   12.2896 N.ar      1 <0>        -0.4717
     27 C21        -1.6792    5.4373   14.0132 C.3       1 <0>         0.0668
     28 N5         -3.1247    5.6617   14.1480 N.3       1 <0>        -0.5388
     29 C22        -3.5604    6.7985   13.3238 C.3       1 <0>         0.0051
     30 C23        -5.0780    6.9592   13.4471 C.3       1 <0>         0.0625
     31 O2         -5.4244    7.1249   14.8247 O.3       1 <0>        -0.3763
     32 C24        -5.0154    6.0356   15.6563 C.3       1 <0>         0.0611
     33 C25        -3.4973    5.8656   15.5554 C.3       1 <0>         0.0167
     34 Cl1         2.8975   -2.9119    3.2629 Cl        1 <0>        -0.0462
     35 H1          1.5228    1.6938    0.3343 H         1 <0>         0.0766
     36 H2          0.0667    0.9713   -0.3909 H         1 <0>         0.0768
     37 H3          0.2108    1.0971    1.3788 H         1 <0>         0.0660
     38 H4          1.3112   -0.7138   -1.6209 H         1 <0>         0.1359
     39 H5          2.3755   -2.9312   -1.5530 H         1 <0>         0.1376
     40 H6          3.0751   -3.9007    0.5984 H         1 <0>         0.1387
     41 H7          1.9151    0.6571    2.9701 H         1 <0>         0.4108
     42 H8          1.4874    1.7693    4.3746 H         1 <0>         0.1440
     43 H9          0.9742    3.0903    6.3299 H         1 <0>         0.1470
     44 H10        -0.2766   -1.6957    6.1869 H         1 <0>         0.1564
     45 H11        -1.7073    1.3184   11.4375 H         1 <0>         0.4473
     46 H12        -0.5986    3.8062    9.0755 H         1 <0>         0.2212
     47 H13        -0.3897    6.2196    9.6195 H         1 <0>         0.1817
     48 H14        -0.8986    6.9683   11.9352 H         1 <0>         0.1826
     49 H15        -1.3641    4.6664   14.7165 H         1 <0>         0.1144
     50 H16        -1.1462    6.3638   14.2269 H         1 <0>         0.0991
     51 H17        -3.0689    7.7080   13.6692 H         1 <0>         0.0609
     52 H18        -3.2973    6.6149   12.2821 H         1 <0>         0.0851
     53 H19        -5.3982    7.8354   12.8833 H         1 <0>         0.1070
     54 H20        -5.5713    6.0711   13.0520 H         1 <0>         0.0609
     55 H21        -5.2904    6.2438   16.6903 H         1 <0>         0.1094
     56 H22        -5.5070    5.1207   15.3255 H         1 <0>         0.0632
     57 H23        -3.1881    5.0009   16.1427 H         1 <0>         0.0958
     58 H24        -3.0047    6.7602   15.9364 H         1 <0>         0.0596
     59 H25        -1.7556    3.0814   12.9684 H         1 <0>         0.4430
@<TRIPOS>BOND
     1    1    2 1
     2    1   35 1
     3    1   36 1
     4    1   37 1
     5    2    7 ar
     6    2    3 ar
     7    3    4 ar
     8    3   38 1
     9    4    5 ar
    10    4   39 1
    11    5    6 ar
    12    5   40 1
    13    6    7 ar
    14    6   34 1
    15    7    8 1
    16    8    9 am
    17    8   41 1
    18    9   10 2
    19    9   11 1
    20   11   16 ar
    21   11   12 ar
    22   12   13 ar
    23   12   42 1
    24   13   14 ar
    25   13   43 1
    26   14   19 1
    27   14   15 ar
    28   15   16 ar
    29   15   17 1
    30   16   44 1
    31   17   18 1
    32   18   19 2
    33   18   20 1
    34   20   21 1
    35   20   45 1
    36   21   26 ar
    37   21   22 ar
    38   22   23 ar
    39   22   46 1
    40   23   24 ar
    41   23   47 1
    42   24   25 ar
    43   24   48 1
    44   25   26 ar
    45   25   27 1
    46   26   59 1
    47   27   28 1
    48   27   49 1
    49   27   50 1
    50   28   33 1
    51   28   29 1
    52   29   30 1
    53   29   51 1
    54   29   52 1
    55   30   31 1
    56   30   53 1
    57   30   54 1
    58   31   32 1
    59   32   33 1
    60   32   55 1
    61   32   56 1
    62   33   57 1
    63   33   58 1
@<TRIPOS>MOLECULE
CHEMBL107183
   49    53     0     0     0
SMALL
USER_CHARGES

@<TRIPOS>ATOM
      1 C1          2.5245   -1.2115    1.7694 C.3       1 <0>        -0.1128
      2 C2          1.3250   -1.3320    0.8650 C.ar      1 <0>        -0.0562
      3 C3          1.4176   -2.0445   -0.3150 C.ar      1 <0>        -0.1119
      4 C4          0.3181   -2.1558   -1.1457 C.ar      1 <0>        -0.0937
      5 C5         -0.8784   -1.5547   -0.7991 C.ar      1 <0>        -0.1135
      6 C6         -0.9782   -0.8405    0.3795 C.ar      1 <0>        -0.0186
      7 C7          0.1243   -0.7317    1.2196 C.ar      1 <0>         0.1504
      8 N1          0.0256   -0.0151    2.4162 N.pl3     1 <0>        -0.6459
      9 C8         -0.3641   -0.6574    3.5763 C.2       1 <0>         0.5112
     10 C9         -0.4727    0.0910    4.8265 C.2       1 <0>        -0.0940
     11 C10        -0.2667    1.4011    5.1826 C.2       1 <0>         0.0477
     12 N2         -0.5265    1.5073    6.4878 N.2       1 <0>        -0.4756
     13 C11        -0.8823    0.3403    6.9658 C.2       1 <0>         0.2187
     14 N3         -0.8645   -0.5686    5.9768 N.pl3     1 <0>        -0.3520
     15 C12        -1.1435   -1.9296    5.9065 C.ar      1 <0>         0.0179
     16 C13        -1.0238   -2.6035    4.6818 C.ar      1 <0>         0.1895
     17 N4         -0.6432   -1.9429    3.5561 N.2       1 <0>        -0.5505
     18 C14        -1.3070   -3.9739    4.6215 C.ar      1 <0>        -0.1292
     19 C15        -1.6987   -4.6482    5.7564 C.ar      1 <0>        -0.0562
     20 C16        -1.8167   -3.9810    6.9647 C.ar      1 <0>        -0.2137
     21 C17        -1.5410   -2.6260    7.0444 C.ar      1 <0>         0.1490
     22 O1         -1.6578   -1.9768    8.2331 O.3       1 <0>        -0.3117
     23 C18        -2.0703   -2.7542    9.3590 C.3       1 <0>         0.1032
     24 C19        -2.1433   -1.8722   10.5788 C.ar      1 <0>        -0.1037
     25 C20        -1.0306   -1.7114   11.3831 C.ar      1 <0>        -0.0939
     26 C21        -1.0975   -0.9023   12.5019 C.ar      1 <0>        -0.1218
     27 C22        -2.2771   -0.2537   12.8163 C.ar      1 <0>        -0.1052
     28 C23        -3.3896   -0.4138   12.0115 C.ar      1 <0>        -0.1218
     29 C24        -3.3214   -1.2194   10.8902 C.ar      1 <0>        -0.0939
     30 Cl1        -2.4799   -0.0857    0.8140 Cl        1 <0>        -0.0585
     31 H1          2.5299   -2.0398    2.4779 H         1 <0>         0.0745
     32 H2          3.4350   -1.2394    1.1709 H         1 <0>         0.0725
     33 H3          2.4760   -0.2683    2.3135 H         1 <0>         0.0672
     34 H4          2.3503   -2.5150   -0.5890 H         1 <0>         0.1334
     35 H5          0.3937   -2.7132   -2.0676 H         1 <0>         0.1357
     36 H6         -1.7353   -1.6433   -1.4504 H         1 <0>         0.1369
     37 H7          0.2306    0.9329    2.4322 H         1 <0>         0.4234
     38 H8          0.0482    2.1995    4.5270 H         1 <0>         0.1843
     39 H9         -1.1478    0.1405    7.9934 H         1 <0>         0.2187
     40 H10        -1.2184   -4.5023    3.6838 H         1 <0>         0.1419
     41 H11        -1.9157   -5.7048    5.7041 H         1 <0>         0.1382
     42 H12        -2.1253   -4.5197    7.8484 H         1 <0>         0.1391
     43 H13        -3.0521   -3.1851    9.1630 H         1 <0>         0.0765
     44 H14        -1.3503   -3.5541    9.5317 H         1 <0>         0.0767
     45 H15        -0.1090   -2.2181   11.1375 H         1 <0>         0.1242
     46 H16        -0.2284   -0.7773   13.1307 H         1 <0>         0.1266
     47 H17        -2.3296    0.3778   13.6908 H         1 <0>         0.1259
     48 H18        -4.3112    0.0927   12.2573 H         1 <0>         0.1266
     49 H19        -4.1894   -1.3415   10.2594 H         1 <0>         0.1242
@<TRIPOS>BOND
     1    1    2 1
     2    1   31 1
     3    1   32 1
     4    1   33 1
     5    2    7 ar
     6    2    3 ar
     7    3    4 ar
     8    3   34 1
     9    4    5 ar
    10    4   35 1
    11    5    6 ar
    12    5   36 1
    13    6    7 ar
    14    6   30 1
    15    7    8 1
    16    8    9 1
    17    8   37 1
    18    9   17 2
    19    9   10 1
    20   10   14 1
    21   10   11 2
    22   11   12 1
    23   11   38 1
    24   12   13 2
    25   13   14 1
    26   13   39 1
    27   14   15 1
    28   15   21 ar
    29   15   16 ar
    30   16   17 1
    31   16   18 ar
    32   18   19 ar
    33   18   40 1
    34   19   20 ar
    35   19   41 1
    36   20   21 ar
    37   20   42 1
    38   21   22 1
    39   22   23 1
    40   23   24 1
    41   23   43 1
    42   23   44 1
    43   24   29 ar
    44   24   25 ar
    45   25   26 ar
    46   25   45 1
    47   26   27 ar
    48   26   46 1
    49   27   28 ar
    50   27   47 1
    51   28   29 ar
    52   28   48 1
    53   29   49 1
@<TRIPOS>MOLECULE
CHEMBL186679
   52    56     0     0     0
SMALL
USER_CHARGES

@<TRIPOS>ATOM
      1 C1          2.5223   -1.2134    1.7682 C.3       1 <0>        -0.1133
      2 C2          1.3227   -1.3319    0.8638 C.ar      1 <0>        -0.0553
      3 C3          1.4146   -2.0432   -0.3170 C.ar      1 <0>        -0.1106
      4 C4          0.3148   -2.1532   -1.1475 C.ar      1 <0>        -0.0908
      5 C5         -0.8814   -1.5520   -0.7998 C.ar      1 <0>        -0.1129
      6 C6         -0.9806   -0.8391    0.3797 C.ar      1 <0>        -0.0186
      7 C7          0.1224   -0.7312    1.2193 C.ar      1 <0>         0.1452
      8 N1          0.0246   -0.0151    2.4162 N.pl3     1 <0>        -0.6412
      9 C8         -0.3655   -0.6585    3.5773 C.2       1 <0>         0.5055
     10 C9         -0.4758    0.0884    4.8285 C.2       1 <0>        -0.0764
     11 C10        -0.2705    1.3983    5.1848 C.2       1 <0>         0.0581
     12 N2         -0.5306    1.5050    6.4904 N.2       1 <0>        -0.4651
     13 C11        -0.8859    0.3389    6.9691 C.2       1 <0>         0.2276
     14 N3         -0.8676   -0.5716    5.9788 N.pl3     1 <0>        -0.3690
     15 C12        -1.1468   -1.9286    5.9121 C.ar      1 <0>         0.3031
     16 C13        -1.0266   -2.6003    4.6855 C.ar      1 <0>         0.0817
     17 N4         -0.6441   -1.9440    3.5587 N.2       1 <0>        -0.5425
     18 C14        -1.3122   -3.9733    4.6323 C.ar      1 <0>        -0.0045
     19 C15        -1.7011   -4.6092    5.7931 C.ar      1 <0>        -0.2139
     20 C16        -1.7985   -3.8771    6.9746 C.ar      1 <0>         0.3936
     21 N5         -1.5246   -2.5835    7.0003 N.ar      1 <0>        -0.5286
     22 N6         -2.1909   -4.5168    8.1454 N.pl3     1 <0>        -0.6173
     23 C17        -2.4034   -3.7072    9.3622 C.3       1 <0>         0.1142
     24 C18        -3.6570   -4.1727   10.1250 C.3       1 <0>        -0.1601
     25 C19        -4.7516   -4.5091    9.1366 C.3       1 <0>        -0.0065
     26 N7         -4.7021   -5.9368    8.8296 N.4       1 <0>        -0.4857
     27 C20        -3.8428   -6.2874    7.7647 C.3       1 <0>        -0.0557
     28 C21        -2.3823   -5.9524    8.1263 C.3       1 <0>         0.1077
     29 Cl1        -2.4820   -0.0847    0.8157 Cl        1 <0>        -0.0596
     30 H1          2.5273   -2.0425    2.4757 H         1 <0>         0.0729
     31 H2          3.4328   -1.2411    1.1695 H         1 <0>         0.0748
     32 H3          2.4746   -0.2707    2.3134 H         1 <0>         0.0673
     33 H4          2.3471   -2.5136   -0.5919 H         1 <0>         0.1352
     34 H5          0.3899   -2.7096   -2.0701 H         1 <0>         0.1376
     35 H6         -1.7385   -1.6396   -1.4509 H         1 <0>         0.1381
     36 H7          0.2303    0.9327    2.4325 H         1 <0>         0.4253
     37 H8          0.0443    2.1966    4.5291 H         1 <0>         0.1914
     38 H9         -1.1512    0.1395    7.9969 H         1 <0>         0.2181
     39 H10        -1.2298   -4.5193    3.7041 H         1 <0>         0.1576
     40 H11        -1.9285   -5.6650    5.7860 H         1 <0>         0.1442
     41 H12        -1.5334   -3.8027   10.0118 H         1 <0>         0.0796
     42 H13        -2.5245   -2.6615    9.0794 H         1 <0>         0.1066
     43 H14        -3.4160   -5.0567   10.7152 H         1 <0>         0.0894
     44 H15        -3.9969   -3.3756   10.7863 H         1 <0>         0.1241
     45 H16        -5.7212   -4.2635    9.5698 H         1 <0>         0.1378
     46 H17        -4.6051   -3.9349    8.2218 H         1 <0>         0.1309
     47 H18        -4.4014   -6.4301    9.6569 H         1 <0>         0.4230
     48 H19        -3.9310   -7.3556    7.5662 H         1 <0>         0.1486
     49 H20        -4.1292   -5.7318    6.8717 H         1 <0>         0.1322
     50 H21        -1.7188   -6.3965    7.3842 H         1 <0>         0.1229
     51 H22        -2.1503   -6.3620    9.1094 H         1 <0>         0.1038
     52 H23        -5.6349   -6.2458    8.6009 H         1 <0>         0.4296
@<TRIPOS>BOND
     1    1    2 1
     2    1   30 1
     3    1   31 1
     4    1   32 1
     5    2    7 ar
     6    2    3 ar
     7    3    4 ar
     8    3   33 1
     9    4    5 ar
    10    4   34 1
    11    5    6 ar
    12    5   35 1
    13    6    7 ar
    14    6   29 1
    15    7    8 1
    16    8    9 1
    17    8   36 1
    18    9   17 2
    19    9   10 1
    20   10   14 1
    21   10   11 2
    22   11   12 1
    23   11   37 1
    24   12   13 2
    25   13   14 1
    26   13   38 1
    27   14   15 1
    28   15   21 ar
    29   15   16 ar
    30   16   17 1
    31   16   18 ar
    32   18   19 ar
    33   18   39 1
    34   19   20 ar
    35   19   40 1
    36   20   21 ar
    37   20   22 1
    38   22   28 1
    39   22   23 1
    40   23   24 1
    41   23   41 1
    42   23   42 1
    43   24   25 1
    44   24   43 1
    45   24   44 1
    46   25   26 1
    47   25   45 1
    48   25   46 1
    49   26   27 1
    50   26   47 1
    51   26   52 1
    52   27   28 1
    53   27   48 1
    54   27   49 1
    55   28   50 1
    56   28   51 1
@<TRIPOS>MOLECULE
CHEMBL45582
   78    83     0     0     0
SMALL
USER_CHARGES

@<TRIPOS>ATOM
      1 C1         -2.7679    1.2309   -0.9243 C.3       1 <0>        -0.0458
      2 N1         -2.5434   -0.2196   -0.8650 N.4       1 <0>        -0.3884
      3 C2         -3.7646   -0.8848   -0.3919 C.3       1 <0>        -0.0020
      4 C3         -3.5373   -2.3974   -0.3479 C.3       1 <0>         0.0200
      5 N2         -2.4156   -2.6954    0.5539 N.3       1 <0>        -0.5346
      6 C4         -1.1916   -2.0159    0.1066 C.3       1 <0>         0.0194
      7 C5         -1.4382   -0.5063    0.0589 C.3       1 <0>        -0.0021
      8 C6         -2.2019   -4.1444    0.6672 C.3       1 <0>         0.0859
      9 C7         -3.4659   -4.8045    1.2218 C.3       1 <0>        -0.1098
     10 C8         -3.2432   -6.3136    1.3398 C.3       1 <0>        -0.1271
     11 C9         -2.0704   -6.5837    2.2845 C.3       1 <0>         0.1748
     12 C10        -0.8064   -5.9236    1.7300 C.3       1 <0>        -0.1265
     13 C11        -1.0290   -4.4145    1.6119 C.3       1 <0>        -0.1113
     14 N3         -1.8572   -8.0287    2.3975 N.pl3     1 <0>        -0.3800
     15 C12        -1.9328   -8.7477    3.5531 C.ar      1 <0>         0.3763
     16 C13        -1.6625  -10.0881    3.2191 C.ar      1 <0>        -0.3257
     17 C14        -1.4201  -10.1145    1.7768 C.2       1 <0>         0.1899
     18 N4         -1.5505   -8.8858    1.3353 N.2       1 <0>        -0.2460
     19 C15        -1.0932  -11.3096    0.9633 C.ar      1 <0>        -0.0577
     20 C16        -1.8086  -12.4929    1.1426 C.ar      1 <0>        -0.0864
     21 C17        -1.5040  -13.6054    0.3857 C.ar      1 <0>        -0.1687
     22 C18        -0.4850  -13.5496   -0.5557 C.ar      1 <0>         0.2173
     23 C19         0.2330  -12.3685   -0.7390 C.ar      1 <0>         0.0573
     24 C20        -0.0735  -11.2502    0.0137 C.ar      1 <0>        -0.1254
     25 O1          1.2313  -12.3153   -1.6613 O.3       1 <0>        -0.3179
     26 C21         1.9247  -11.0731   -1.7958 C.3       1 <0>         0.0309
     27 N5         -0.1781  -14.6795   -1.3207 N.pl3     1 <0>        -0.7311
     28 C22        -0.9317  -15.9210   -1.1284 C.3       1 <0>         0.1654
     29 C23        -0.4082  -16.9770   -2.0675 C.ar      1 <0>        -0.1128
     30 C24        -0.9516  -17.1085   -3.3317 C.ar      1 <0>        -0.0998
     31 C25        -0.4714  -18.0771   -4.1931 C.ar      1 <0>        -0.1217
     32 C26         0.5526  -18.9139   -3.7905 C.ar      1 <0>        -0.1091
     33 C27         1.0966  -18.7818   -2.5266 C.ar      1 <0>        -0.1213
     34 C28         0.6193  -17.8104   -1.6667 C.ar      1 <0>        -0.0993
     35 C29        -1.6774  -11.0507    4.2415 C.ar      1 <0>         0.5204
     36 N6         -1.9465  -10.6510    5.4808 N.ar      1 <0>        -0.6039
     37 C30        -2.1946   -9.3815    5.7495 C.ar      1 <0>         0.3885
     38 N7         -2.1917   -8.4461    4.8253 N.ar      1 <0>        -0.5795
     39 N8         -1.4192  -12.3797    3.9666 N.pl3     1 <0>        -0.8259
     40 H1         -1.8623    1.7247   -1.2766 H         1 <0>         0.1239
     41 H2         -3.5881    1.4440   -1.6099 H         1 <0>         0.1240
     42 H3         -3.0200    1.6005    0.0697 H         1 <0>         0.1232
     43 H4         -4.0103   -0.5251    0.6073 H         1 <0>         0.1379
     44 H5         -4.5870   -0.6606   -1.0712 H         1 <0>         0.1353
     45 H6         -4.4384   -2.8901    0.0174 H         1 <0>         0.1267
     46 H7         -3.3049   -2.7596   -1.3494 H         1 <0>         0.0605
     47 H8         -0.3813   -2.2301    0.8035 H         1 <0>         0.1272
     48 H9         -0.9205   -2.3717   -0.8874 H         1 <0>         0.0603
     49 H10        -0.5359   -0.0015   -0.2862 H         1 <0>         0.1352
     50 H11        -1.6959   -0.1486    1.0558 H         1 <0>         0.1379
     51 H12        -1.9784   -4.5567   -0.3167 H         1 <0>         0.0567
     52 H13        -3.6894   -4.3921    2.2057 H         1 <0>         0.0820
     53 H14        -4.3014   -4.6120    0.5488 H         1 <0>         0.0714
     54 H15        -4.1437   -6.7839    1.7349 H         1 <0>         0.0762
     55 H16        -3.0197   -6.7260    0.3559 H         1 <0>         0.0784
     56 H17        -2.2939   -6.1714    3.2684 H         1 <0>         0.1111
     57 H18         0.0291   -6.1161    2.4029 H         1 <0>         0.0758
     58 H19        -0.5829   -6.3360    0.7460 H         1 <0>         0.0779
     59 H20        -0.1286   -3.9442    1.2168 H         1 <0>         0.0716
     60 H21        -1.2526   -4.0021    2.5958 H         1 <0>         0.0822
     61 H22        -2.6014  -12.5387    1.8746 H         1 <0>         0.1317
     62 H23        -2.0588  -14.5213    0.5260 H         1 <0>         0.1379
     63 H24         0.4790  -10.3334   -0.1300 H         1 <0>         0.1320
     64 H25         1.2198  -10.2926   -2.0818 H         1 <0>         0.0537
     65 H26         2.3899  -10.8120   -0.8452 H         1 <0>         0.0542
     66 H27         2.6935  -11.1673   -2.5628 H         1 <0>         0.1008
     67 H28         0.5336  -14.6411   -1.9785 H         1 <0>         0.4090
     68 H29        -0.8160  -16.2605   -0.0991 H         1 <0>         0.0716
     69 H30        -1.9867  -15.7415   -1.3354 H         1 <0>         0.0711
     70 H31        -1.7516  -16.4547   -3.6463 H         1 <0>         0.1231
     71 H32        -0.8964  -18.1803   -5.1806 H         1 <0>         0.1250
     72 H33         0.9273  -19.6712   -4.4632 H         1 <0>         0.1248
     73 H34         1.8964  -19.4359   -2.2119 H         1 <0>         0.1254
     74 H35         1.0468  -17.7048   -0.6806 H         1 <0>         0.1237
     75 H36        -2.4086   -9.1005    6.7701 H         1 <0>         0.2049
     76 H37        -1.0035  -12.6293    3.1264 H         1 <0>         0.4158
     77 H38        -1.6536  -13.0633    4.6136 H         1 <0>         0.4117
     78 H39        -2.3097   -0.5614   -1.7851 H         1 <0>         0.4222
@<TRIPOS>BOND
     1    1    2 1
     2    1   40 1
     3    1   41 1
     4    1   42 1
     5    2    7 1
     6    2    3 1
     7    2   78 1
     8    3    4 1
     9    3   43 1
    10    3   44 1
    11    4    5 1
    12    4   45 1
    13    4   46 1
    14    5    6 1
    15    5    8 1
    16    6    7 1
    17    6   47 1
    18    6   48 1
    19    7   49 1
    20    7   50 1
    21    8   13 1
    22    8    9 1
    23    8   51 1
    24    9   10 1
    25    9   52 1
    26    9   53 1
    27   10   11 1
    28   10   54 1
    29   10   55 1
    30   11   12 1
    31   11   14 1
    32   11   56 1
    33   12   13 1
    34   12   57 1
    35   12   58 1
    36   13   59 1
    37   13   60 1
    38   14   18 1
    39   14   15 1
    40   15   38 ar
    41   15   16 ar
    42   16   17 1
    43   16   35 ar
    44   17   18 2
    45   17   19 1
    46   19   24 ar
    47   19   20 ar
    48   20   21 ar
    49   20   61 1
    50   21   22 ar
    51   21   62 1
    52   22   23 ar
    53   22   27 1
    54   23   24 ar
    55   23   25 1
    56   24   63 1
    57   25   26 1
    58   26   64 1
    59   26   65 1
    60   26   66 1
    61   27   28 1
    62   27   67 1
    63   28   29 1
    64   28   68 1
    65   28   69 1
    66   29   34 ar
    67   29   30 ar
    68   30   31 ar
    69   30   70 1
    70   31   32 ar
    71   31   71 1
    72   32   33 ar
    73   32   72 1
    74   33   34 ar
    75   33   73 1
    76   34   74 1
    77   35   36 ar
    78   35   39 1
    79   36   37 ar
    80   37   38 ar
    81   37   75 1
    82   39   76 1
    83   39   77 1
@<TRIPOS>MOLECULE
CHEMBL45582__1
   78    83     0     0     0
SMALL
USER_CHARGES

@<TRIPOS>ATOM
      1 C1         -2.7507    1.1843   -1.1216 C.3       1 <0>         0.0195
      2 N1         -2.4998   -0.2605   -1.0347 N.3       1 <0>        -0.5434
      3 C2         -3.7197   -0.9848   -0.6507 C.3       1 <0>         0.0253
      4 C3         -3.4318   -2.4876   -0.6295 C.3       1 <0>        -0.0067
      5 N2         -2.3541   -2.7664    0.3288 N.4       1 <0>        -0.3838
      6 C4         -1.1357   -2.0559   -0.0816 C.3       1 <0>        -0.0066
      7 C5         -1.4046   -0.5495   -0.0982 C.3       1 <0>         0.0254
      8 C6         -2.0904   -4.2111    0.3620 C.3       1 <0>         0.0238
      9 C7         -3.3588   -4.9513    0.7912 C.3       1 <0>        -0.1364
     10 C8         -3.0841   -6.4561    0.8258 C.3       1 <0>        -0.1256
     11 C9         -1.9615   -6.7468    1.8239 C.3       1 <0>         0.1723
     12 C10        -0.6931   -6.0066    1.3947 C.3       1 <0>        -0.1252
     13 C11        -0.9678   -4.5018    1.3601 C.3       1 <0>        -0.1364
     14 N3         -1.6986   -8.1876    1.8571 N.pl3     1 <0>        -0.3856
     15 C12        -1.8161   -8.9842    2.9568 C.ar      1 <0>         0.3778
     16 C13        -1.4730  -10.2889    2.5551 C.ar      1 <0>        -0.3258
     17 C14        -1.1418  -10.2104    1.1325 C.2       1 <0>         0.1997
     18 N4         -1.2936   -8.9604    0.7636 N.2       1 <0>        -0.2503
     19 C15        -0.7185  -11.3362    0.2662 C.ar      1 <0>        -0.0636
     20 C16        -1.3961  -12.5535    0.3230 C.ar      1 <0>        -0.0852
     21 C17        -1.0018  -13.6014   -0.4830 C.ar      1 <0>        -0.1692
     22 C18         0.0699  -13.4467   -1.3520 C.ar      1 <0>         0.2199
     23 C19         0.7504  -12.2313   -1.4128 C.ar      1 <0>         0.0576
     24 C20         0.3542  -11.1773   -0.6107 C.ar      1 <0>        -0.1246
     25 O1          1.8004  -12.0812   -2.2642 O.3       1 <0>        -0.3173
     26 C21         2.4510  -10.8089   -2.2740 C.3       1 <0>         0.0310
     27 N5          0.4677  -14.5114   -2.1670 N.pl3     1 <0>        -0.7298
     28 C22        -0.2464  -15.7890   -2.1035 C.3       1 <0>         0.1651
     29 C23         0.3751  -16.7607   -3.0733 C.ar      1 <0>        -0.1139
     30 C24        -0.0842  -16.8268   -4.3755 C.ar      1 <0>        -0.0997
     31 C25         0.4859  -17.7180   -5.2651 C.ar      1 <0>        -0.1215
     32 C26         1.5157  -18.5429   -4.8527 C.ar      1 <0>        -0.1085
     33 C27         1.9756  -18.4762   -3.5508 C.ar      1 <0>        -0.1212
     34 C28         1.4083  -17.5819   -2.6624 C.ar      1 <0>        -0.0993
     35 C29        -1.5122  -11.3175    3.5104 C.ar      1 <0>         0.5219
     36 N6         -1.8725  -11.0113    4.7531 N.ar      1 <0>        -0.6018
     37 C30        -2.1867   -9.7722    5.0866 C.ar      1 <0>         0.3916
     38 N7         -2.1642   -8.7776    4.2266 N.ar      1 <0>        -0.5825
     39 N8         -1.1852  -12.6152    3.1674 N.pl3     1 <0>        -0.8239
     40 H1         -1.8500    1.6891   -1.4708 H         1 <0>         0.0843
     41 H2         -3.5657    1.3701   -1.8211 H         1 <0>         0.0839
     42 H3         -3.0227    1.5657   -0.1374 H         1 <0>         0.0396
     43 H4         -4.0379   -0.6615    0.3405 H         1 <0>         0.0605
     44 H5         -4.5092   -0.7759   -1.3726 H         1 <0>         0.1238
     45 H6         -4.3315   -3.0257   -0.3311 H         1 <0>         0.1374
     46 H7         -3.1268   -2.8131   -1.6241 H         1 <0>         0.1381
     47 H8         -0.3332   -2.2740    0.6230 H         1 <0>         0.1373
     48 H9         -0.8425   -2.3836   -1.0790 H         1 <0>         0.1380
     49 H10        -0.5050   -0.0230   -0.4170 H         1 <0>         0.1237
     50 H11        -1.6846   -0.2190    0.9021 H         1 <0>         0.0605
     51 H12        -1.7908   -4.5487   -0.6302 H         1 <0>         0.1415
     52 H13        -3.6583   -4.6137    1.7834 H         1 <0>         0.0913
     53 H14        -4.1585   -4.7442    0.0801 H         1 <0>         0.0961
     54 H15        -3.9877   -6.9834    1.1316 H         1 <0>         0.0901
     55 H16        -2.7846   -6.7936   -0.1664 H         1 <0>         0.0898
     56 H17        -2.2611   -6.4092    2.8161 H         1 <0>         0.1134
     57 H18         0.1066   -6.2137    2.1058 H         1 <0>         0.0897
     58 H19        -0.3936   -6.3441    0.4025 H         1 <0>         0.0892
     59 H20        -0.0642   -3.9745    1.0543 H         1 <0>         0.0959
     60 H21        -1.2673   -4.1642    2.3523 H         1 <0>         0.0914
     61 H22        -2.2298  -12.6762    0.9985 H         1 <0>         0.1315
     62 H23        -1.5274  -14.5438   -0.4376 H         1 <0>         0.1385
     63 H24         0.8777  -10.2339   -0.6596 H         1 <0>         0.1320
     64 H25         3.2684  -10.8243   -2.9949 H         1 <0>         0.1016
     65 H26         1.7345  -10.0366   -2.5535 H         1 <0>         0.0537
     66 H27         2.8463  -10.5954   -1.2809 H         1 <0>         0.0540
     67 H28         1.2163  -14.4040   -2.7744 H         1 <0>         0.4096
     68 H29        -0.1807  -16.1922   -1.0929 H         1 <0>         0.0720
     69 H30        -1.2931  -15.6337   -2.3653 H         1 <0>         0.0716
     70 H31        -0.8887  -16.1823   -4.6976 H         1 <0>         0.1231
     71 H32         0.1266  -17.7702   -6.2822 H         1 <0>         0.1253
     72 H33         1.9606  -19.2398   -5.5476 H         1 <0>         0.1252
     73 H34         2.7799  -19.1210   -3.2285 H         1 <0>         0.1257
     74 H35         1.7702  -17.5272   -1.6462 H         1 <0>         0.1236
     75 H36        -2.4737   -9.5677    6.1075 H         1 <0>         0.2060
     76 H37        -0.7093  -12.7932    2.3412 H         1 <0>         0.4166
     77 H38        -1.4315  -13.3483    3.7529 H         1 <0>         0.4129
     78 H39        -2.6319   -2.4544    1.2472 H         1 <0>         0.4185
@<TRIPOS>BOND
     1    1    2 1
     2    1   40 1
     3    1   41 1
     4    1   42 1
     5    2    7 1
     6    2    3 1
     7    3    4 1
     8    3   43 1
     9    3   44 1
    10    4    5 1
    11    4   45 1
    12    4   46 1
    13    5    6 1
    14    5    8 1
    15    5   78 1
    16    6    7 1
    17    6   47 1
    18    6   48 1
    19    7   49 1
    20    7   50 1
    21    8   13 1
    22    8    9 1
    23    8   51 1
    24    9   10 1
    25    9   52 1
    26    9   53 1
    27   10   11 1
    28   10   54 1
    29   10   55 1
    30   11   12 1
    31   11   14 1
    32   11   56 1
    33   12   13 1
    34   12   57 1
    35   12   58 1
    36   13   59 1
    37   13   60 1
    38   14   18 1
    39   14   15 1
    40   15   38 ar
    41   15   16 ar
    42   16   17 1
    43   16   35 ar
    44   17   18 2
    45   17   19 1
    46   19   24 ar
    47   19   20 ar
    48   20   21 ar
    49   20   61 1
    50   21   22 ar
    51   21   62 1
    52   22   23 ar
    53   22   27 1
    54   23   24 ar
    55   23   25 1
    56   24   63 1
    57   25   26 1
    58   26   64 1
    59   26   65 1
    60   26   66 1
    61   27   28 1
    62   27   67 1
    63   28   29 1
    64   28   68 1
    65   28   69 1
    66   29   34 ar
    67   29   30 ar
    68   30   31 ar
    69   30   70 1
    70   31   32 ar
    71   31   71 1
    72   32   33 ar
    73   32   72 1
    74   33   34 ar
    75   33   73 1
    76   34   74 1
    77   35   36 ar
    78   35   39 1
    79   36   37 ar
    80   37   38 ar
    81   37   75 1
    82   39   76 1
    83   39   77 1
@<TRIPOS>MOLECULE
CHEMBL534948
   65    69     0     0     0
SMALL
USER_CHARGES

@<TRIPOS>ATOM
      1 C1          2.9555   -0.6039    1.4800 C.3       1 <0>        -0.1123
      2 C2          1.8204   -1.2834    0.7584 C.ar      1 <0>        -0.0770
      3 C3          2.0314   -1.8506   -0.4830 C.ar      1 <0>        -0.1204
      4 C4          0.9902   -2.4740   -1.1461 C.ar      1 <0>        -0.1040
      5 C5         -0.2651   -2.5321   -0.5690 C.ar      1 <0>        -0.1203
      6 C6         -0.4831   -1.9669    0.6721 C.ar      1 <0>        -0.0556
      7 C7          0.5620   -1.3450    1.3436 C.ar      1 <0>         0.1340
      8 N1          0.3463   -0.7771    2.6020 N.pl3     1 <0>        -0.6415
      9 C8          0.1432   -1.5912    3.7032 C.2       1 <0>         0.4941
     10 C9          0.0321   -1.0254    4.9942 C.2       1 <0>        -0.0884
     11 C10         0.0777    0.2560    5.4947 C.2       1 <0>         0.0353
     12 N2         -0.0910    0.1758    6.8154 N.2       1 <0>        -0.4585
     13 C11        -0.2392   -1.0777    7.1697 C.2       1 <0>         0.1708
     14 N3         -0.1708   -1.8594    6.0795 N.pl3     1 <0>        -0.3285
     15 C12        -0.2581   -3.2240    5.8614 C.2       1 <0>        -0.0158
     16 C13        -0.1435   -3.7101    4.5964 C.2       1 <0>         0.1379
     17 N4          0.0468   -2.8995    3.5525 N.2       1 <0>        -0.5505
     18 C14        -0.4736   -4.1452    6.9946 C.ar      1 <0>        -0.0691
     19 C15        -1.6681   -4.0989    7.7178 C.ar      1 <0>        -0.0559
     20 C16        -1.8651   -4.9612    8.7749 C.ar      1 <0>        -0.1419
     21 C17        -0.8784   -5.8748    9.1217 C.ar      1 <0>         0.1332
     22 C18         0.3107   -5.9241    8.4060 C.ar      1 <0>        -0.2046
     23 C19         0.5140   -5.0698    7.3436 C.ar      1 <0>        -0.0507
     24 O1         -1.0768   -6.7228   10.1649 O.3       1 <0>        -0.3091
     25 C20        -0.0210   -7.6370   10.4677 C.3       1 <0>         0.0646
     26 C21        -0.4236   -8.5033   11.6628 C.3       1 <0>        -0.1112
     27 C22        -0.5607   -7.6237   12.9088 C.3       1 <0>        -0.1324
     28 C23        -0.8868   -8.5104   14.1141 C.3       1 <0>        -0.1485
     29 C24         0.2049   -9.5711   14.2703 C.3       1 <0>        -0.0104
     30 N5          0.2683  -10.3955   13.0575 N.4       1 <0>        -0.3784
     31 C25         0.6509   -9.5643   11.9098 C.3       1 <0>        -0.0038
     32 C26        -1.0480  -10.9975   12.8070 C.3       1 <0>        -0.0604
     33 C27        -1.8516   -2.0303    1.3000 C.3       1 <0>        -0.1091
     34 H1          3.4799   -1.3316    2.0993 H         1 <0>         0.0692
     35 H2          3.6475   -0.1807    0.7519 H         1 <0>         0.0708
     36 H3          2.5602    0.1923    2.1109 H         1 <0>         0.0635
     37 H4          3.0106   -1.8070   -0.9365 H         1 <0>         0.1264
     38 H5          1.1578   -2.9161   -2.1171 H         1 <0>         0.1258
     39 H6         -1.0761   -3.0196   -1.0896 H         1 <0>         0.1256
     40 H7          0.3390    0.1875    2.7040 H         1 <0>         0.4208
     41 H8          0.2238    1.1606    4.9230 H         1 <0>         0.1844
     42 H9         -0.3916   -1.4273    8.1802 H         1 <0>         0.2096
     43 H10        -0.2120   -4.7753    4.4320 H         1 <0>         0.1707
     44 H11        -2.4357   -3.3882    7.4492 H         1 <0>         0.1339
     45 H12        -2.7882   -4.9262    9.3345 H         1 <0>         0.1374
     46 H13         1.0755   -6.6359    8.6795 H         1 <0>         0.1301
     47 H14         1.4370   -5.1121    6.7845 H         1 <0>         0.1319
     48 H15         0.1666   -8.2744    9.6036 H         1 <0>         0.0743
     49 H16         0.8835   -7.0796   10.7112 H         1 <0>         0.0745
     50 H17        -1.3758   -8.9912   11.4543 H         1 <0>         0.1083
     51 H18         0.3762   -7.0960   13.0874 H         1 <0>         0.0837
     52 H19        -1.3640   -6.9023   12.7592 H         1 <0>         0.1022
     53 H20        -0.9311   -7.8982   15.0149 H         1 <0>         0.1143
     54 H21        -1.8488   -8.9984   13.9573 H         1 <0>         0.0905
     55 H22         1.1663   -9.0820   14.4273 H         1 <0>         0.1305
     56 H23        -0.0241  -10.2040   15.1277 H         1 <0>         0.1328
     57 H24         0.7513  -10.1922   11.0244 H         1 <0>         0.1346
     58 H25         1.6028   -9.0754   12.1171 H         1 <0>         0.1339
     59 H26        -1.7886  -10.2090   12.6728 H         1 <0>         0.1272
     60 H27        -1.0021  -11.6099   11.9065 H         1 <0>         0.1250
     61 H28        -1.3302  -11.6202   13.6559 H         1 <0>         0.1264
     62 H29        -1.9671   -2.9788    1.8245 H         1 <0>         0.0748
     63 H30        -1.9656   -1.2082    2.0066 H         1 <0>         0.0582
     64 H31        -2.6119   -1.9498    0.5231 H         1 <0>         0.0660
     65 H32         0.9517  -11.1269   13.1845 H         1 <0>         0.4312
@<TRIPOS>BOND
     1    1    2 1
     2    1   34 1
     3    1   35 1
     4    1   36 1
     5    2    7 ar
     6    2    3 ar
     7    3    4 ar
     8    3   37 1
     9    4    5 ar
    10    4   38 1
    11    5    6 ar
    12    5   39 1
    13    6    7 ar
    14    6   33 1
    15    7    8 1
    16    8    9 1
    17    8   40 1
    18    9   17 2
    19    9   10 1
    20   10   14 1
    21   10   11 2
    22   11   12 1
    23   11   41 1
    24   12   13 2
    25   13   14 1
    26   13   42 1
    27   14   15 1
    28   15   16 2
    29   15   18 1
    30   16   17 1
    31   16   43 1
    32   18   23 ar
    33   18   19 ar
    34   19   20 ar
    35   19   44 1
    36   20   21 ar
    37   20   45 1
    38   21   22 ar
    39   21   24 1
    40   22   23 ar
    41   22   46 1
    42   23   47 1
    43   24   25 1
    44   25   26 1
    45   25   48 1
    46   25   49 1
    47   26   31 1
    48   26   27 1
    49   26   50 1
    50   27   28 1
    51   27   51 1
    52   27   52 1
    53   28   29 1
    54   28   53 1
    55   28   54 1
    56   29   30 1
    57   29   55 1
    58   29   56 1
    59   30   31 1
    60   30   32 1
    61   30   65 1
    62   31   57 1
    63   31   58 1
    64   32   59 1
    65   32   60 1
    66   32   61 1
    67   33   62 1
    68   33   63 1
    69   33   64 1
@<TRIPOS>MOLECULE
CHEMBL534948__1
   65    69     0     0     0
SMALL
USER_CHARGES

@<TRIPOS>ATOM
      1 C1          2.9555   -0.6039    1.4800 C.3       1 <0>        -0.1123
      2 C2          1.8204   -1.2834    0.7584 C.ar      1 <0>        -0.0770
      3 C3          2.0314   -1.8506   -0.4830 C.ar      1 <0>        -0.1204
      4 C4          0.9902   -2.4740   -1.1461 C.ar      1 <0>        -0.1040
      5 C5         -0.2651   -2.5321   -0.5690 C.ar      1 <0>        -0.1203
      6 C6         -0.4831   -1.9669    0.6721 C.ar      1 <0>        -0.0556
      7 C7          0.5620   -1.3450    1.3436 C.ar      1 <0>         0.1340
      8 N1          0.3463   -0.7771    2.6020 N.pl3     1 <0>        -0.6415
      9 C8          0.1432   -1.5912    3.7032 C.2       1 <0>         0.4941
     10 C9          0.0321   -1.0254    4.9942 C.2       1 <0>        -0.0884
     11 C10         0.0777    0.2560    5.4947 C.2       1 <0>         0.0353
     12 N2         -0.0910    0.1758    6.8154 N.2       1 <0>        -0.4585
     13 C11        -0.2392   -1.0777    7.1697 C.2       1 <0>         0.1708
     14 N3         -0.1708   -1.8594    6.0795 N.pl3     1 <0>        -0.3285
     15 C12        -0.2581   -3.2240    5.8614 C.2       1 <0>        -0.0156
     16 C13        -0.1435   -3.7101    4.5964 C.2       1 <0>         0.1378
     17 N4          0.0468   -2.8995    3.5525 N.2       1 <0>        -0.5505
     18 C14        -0.4736   -4.1452    6.9946 C.ar      1 <0>        -0.0693
     19 C15        -1.6681   -4.0989    7.7178 C.ar      1 <0>        -0.0558
     20 C16        -1.8651   -4.9612    8.7749 C.ar      1 <0>        -0.1418
     21 C17        -0.8784   -5.8748    9.1217 C.ar      1 <0>         0.1334
     22 C18         0.3107   -5.9241    8.4060 C.ar      1 <0>        -0.2048
     23 C19         0.5140   -5.0698    7.3436 C.ar      1 <0>        -0.0508
     24 O1         -1.0768   -6.7228   10.1649 O.3       1 <0>        -0.3088
     25 C20        -0.0210   -7.6370   10.4677 C.3       1 <0>         0.0651
     26 C21        -0.4236   -8.5033   11.6628 C.3       1 <0>        -0.1094
     27 C22        -1.6164   -9.3832   11.2778 C.3       1 <0>        -0.1328
     28 C23        -1.9614  -10.3014   12.4538 C.3       1 <0>        -0.1464
     29 C24        -0.7286  -11.1270   12.8279 C.3       1 <0>        -0.0096
     30 N5          0.3678  -10.2296   13.2112 N.4       1 <0>        -0.3822
     31 C25         0.7522   -9.3956   12.0662 C.3       1 <0>        -0.0029
     32 C26         1.5230  -11.0273   13.6438 C.3       1 <0>        -0.0473
     33 C27        -1.8516   -2.0303    1.3000 C.3       1 <0>        -0.1091
     34 H1          3.4799   -1.3316    2.0993 H         1 <0>         0.0692
     35 H2          3.6475   -0.1807    0.7519 H         1 <0>         0.0708
     36 H3          2.5602    0.1923    2.1109 H         1 <0>         0.0635
     37 H4          3.0106   -1.8070   -0.9365 H         1 <0>         0.1263
     38 H5          1.1578   -2.9161   -2.1171 H         1 <0>         0.1258
     39 H6         -1.0761   -3.0196   -1.0896 H         1 <0>         0.1256
     40 H7          0.3390    0.1875    2.7040 H         1 <0>         0.4208
     41 H8          0.2238    1.1606    4.9230 H         1 <0>         0.1843
     42 H9         -0.3916   -1.4273    8.1802 H         1 <0>         0.2097
     43 H10        -0.2120   -4.7753    4.4320 H         1 <0>         0.1706
     44 H11        -2.4357   -3.3882    7.4492 H         1 <0>         0.1339
     45 H12        -2.7882   -4.9262    9.3345 H         1 <0>         0.1375
     46 H13         1.0755   -6.6359    8.6795 H         1 <0>         0.1300
     47 H14         1.4370   -5.1121    6.7845 H         1 <0>         0.1318
     48 H15         0.1666   -8.2744    9.6036 H         1 <0>         0.0746
     49 H16         0.8835   -7.0796   10.7112 H         1 <0>         0.0741
     50 H17        -0.6986   -7.8626   12.5006 H         1 <0>         0.1072
     51 H18        -2.4741   -8.7525   11.0439 H         1 <0>         0.1023
     52 H19        -1.3583   -9.9868   10.4076 H         1 <0>         0.0828
     53 H20        -2.2688   -9.6985   13.3083 H         1 <0>         0.0894
     54 H21        -2.7738  -10.9695   12.1678 H         1 <0>         0.1150
     55 H22        -0.9709  -11.7821   13.6648 H         1 <0>         0.1327
     56 H23        -0.4223  -11.7297   11.9729 H         1 <0>         0.1292
     57 H24         1.0270  -10.0351   11.2274 H         1 <0>         0.1328
     58 H25         1.6032   -8.7723   12.3408 H         1 <0>         0.1343
     59 H26         1.8479  -11.6698   12.8254 H         1 <0>         0.1225
     60 H27         2.3379  -10.3618   13.9287 H         1 <0>         0.1248
     61 H28         1.2405  -11.6422   14.4983 H         1 <0>         0.1263
     62 H29        -1.9671   -2.9788    1.8245 H         1 <0>         0.0748
     63 H30        -1.9656   -1.2082    2.0066 H         1 <0>         0.0583
     64 H31        -2.6119   -1.9498    0.5231 H         1 <0>         0.0660
     65 H32         0.0668   -9.6379   13.9711 H         1 <0>         0.4261
@<TRIPOS>BOND
     1    1    2 1
     2    1   34 1
     3    1   35 1
     4    1   36 1
     5    2    7 ar
     6    2    3 ar
     7    3    4 ar
     8    3   37 1
     9    4    5 ar
    10    4   38 1
    11    5    6 ar
    12    5   39 1
    13    6    7 ar
    14    6   33 1
    15    7    8 1
    16    8    9 1
    17    8   40 1
    18    9   17 2
    19    9   10 1
    20   10   14 1
    21   10   11 2
    22   11   12 1
    23   11   41 1
    24   12   13 2
    25   13   14 1
    26   13   42 1
    27   14   15 1
    28   15   16 2
    29   15   18 1
    30   16   17 1
    31   16   43 1
    32   18   23 ar
    33   18   19 ar
    34   19   20 ar
    35   19   44 1
    36   20   21 ar
    37   20   45 1
    38   21   22 ar
    39   21   24 1
    40   22   23 ar
    41   22   46 1
    42   23   47 1
    43   24   25 1
    44   25   26 1
    45   25   48 1
    46   25   49 1
    47   26   31 1
    48   26   27 1
    49   26   50 1
    50   27   28 1
    51   27   51 1
    52   27   52 1
    53   28   29 1
    54   28   53 1
    55   28   54 1
    56   29   30 1
    57   29   55 1
    58   29   56 1
    59   30   31 1
    60   30   32 1
    61   30   65 1
    62   31   57 1
    63   31   58 1
    64   32   59 1
    65   32   60 1
    66   32   61 1
    67   33   62 1
    68   33   63 1
    69   33   64 1
@<TRIPOS>MOLECULE
CHEMBL186363
   35    37     0     0     0
SMALL
USER_CHARGES

@<TRIPOS>ATOM
      1 C1         -1.2673    1.1595    0.2150 C.3       1 <0>        -0.1168
      2 C2         -0.5686   -0.1712    0.1042 C.ar      1 <0>        -0.0843
      3 C3         -0.5632   -0.8512   -1.0985 C.ar      1 <0>        -0.1051
      4 C4          0.0773   -2.0720   -1.2017 C.ar      1 <0>        -0.1055
      5 C5          0.7148   -2.6173   -0.1020 C.ar      1 <0>        -0.1061
      6 C6          0.7130   -1.9429    1.1040 C.ar      1 <0>        -0.0238
      7 C7          0.0750   -0.7122    1.2089 C.ar      1 <0>         0.1439
      8 N1          0.0762   -0.0234    2.4265 N.am      1 <0>        -0.6720
      9 C8         -0.3205   -0.6467    3.5538 C.2       1 <0>         0.6116
     10 O1         -0.5832   -1.8354    3.5319 O.2       1 <0>        -0.4873
     11 C9         -0.4353    0.1046    4.8029 C.2       1 <0>        -0.3060
     12 C10        -0.8141   -0.3283    6.0662 C.2       1 <0>         0.1743
     13 N2         -0.8268    0.5771    7.0116 N.2       1 <0>        -0.5718
     14 C11        -0.4958    1.8331    6.7686 C.2       1 <0>         0.3023
     15 S1         -0.1198    1.8318    5.1283 S.3       1 <0>         0.1652
     16 N3         -0.4607    2.8930    7.6518 N.pl3     1 <0>        -0.5963
     17 C12        -0.6837    2.6757    9.0104 C.ar      1 <0>         0.1582
     18 C13        -0.4364    1.4298    9.5919 C.ar      1 <0>        -0.1344
     19 C14        -0.6809    1.2879   10.9455 C.ar      1 <0>         0.0691
     20 N4         -1.1337    2.3129   11.6445 N.ar      1 <0>        -0.2593
     21 N5         -1.3622    3.4589   11.1146 N.ar      1 <0>        -0.2167
     22 C15        -1.1555    3.6960    9.8347 C.ar      1 <0>         0.0181
     23 Cl1         1.5128   -2.6278    2.4841 Cl        1 <0>        -0.0437
     24 H1         -0.5676    1.9587   -0.0297 H         1 <0>         0.0760
     25 H2         -2.1078    1.1874   -0.4784 H         1 <0>         0.0761
     26 H3         -1.6317    1.2948    1.2334 H         1 <0>         0.0669
     27 H4         -1.0603   -0.4286   -1.9591 H         1 <0>         0.1344
     28 H5          0.0795   -2.6014   -2.1430 H         1 <0>         0.1358
     29 H6          1.2142   -3.5712   -0.1860 H         1 <0>         0.1377
     30 H7          0.3625    0.9028    2.4596 H         1 <0>         0.4086
     31 H8         -1.0839   -1.3562    6.2587 H         1 <0>         0.1926
     32 H9         -0.2807    3.7891    7.3271 H         1 <0>         0.4375
     33 H10        -0.0664    0.6036    9.0030 H         1 <0>         0.1680
     34 H11        -0.5020    0.3397   11.4306 H         1 <0>         0.1779
     35 H12        -1.3547    4.6754    9.4255 H         1 <0>         0.1749
@<TRIPOS>BOND
     1    1    2 1
     2    1   24 1
     3    1   25 1
     4    1   26 1
     5    2    7 ar
     6    2    3 ar
     7    3    4 ar
     8    3   27 1
     9    4    5 ar
    10    4   28 1
    11    5    6 ar
    12    5   29 1
    13    6    7 ar
    14    6   23 1
    15    7    8 1
    16    8    9 am
    17    8   30 1
    18    9   10 2
    19    9   11 1
    20   11   15 1
    21   11   12 2
    22   12   13 1
    23   12   31 1
    24   13   14 2
    25   14   15 1
    26   14   16 1
    27   16   17 1
    28   16   32 1
    29   17   22 ar
    30   17   18 ar
    31   18   19 ar
    32   18   33 1
    33   19   20 ar
    34   19   34 1
    35   20   21 ar
    36   21   22 ar
    37   22   35 1
@<TRIPOS>MOLECULE
CHEMBL255533
   53    55     0     0     0
SMALL
USER_CHARGES

@<TRIPOS>ATOM
      1 C1         -0.1468    1.3017   -0.2188 C.3       1 <0>        -0.1229
      2 C2         -0.1186   -0.2039   -0.1600 C.ar      1 <0>        -0.0779
      3 C3         -0.1505   -0.9398   -1.3299 C.ar      1 <0>        -0.1070
      4 C4         -0.1250   -2.3186   -1.2842 C.ar      1 <0>        -0.0947
      5 C5         -0.0663   -2.9753   -0.0533 C.ar      1 <0>        -0.1296
      6 C6         -0.0337   -2.2329    1.1269 C.ar      1 <0>        -0.0507
      7 C7         -0.0549   -0.8478    1.0699 C.ar      1 <0>         0.1425
      8 N1         -0.0174   -0.0984    2.2506 N.am      1 <0>        -0.6729
      9 C8         -0.6345   -0.5550    3.3584 C.2       1 <0>         0.5787
     10 O1         -1.1495   -1.6570    3.3572 O.2       1 <0>        -0.4952
     11 C9         -0.6852    0.2800    4.5700 C.ar      1 <0>        -0.3306
     12 C10        -0.1040    1.5532    4.5906 C.ar      1 <0>         0.2585
     13 N2         -0.1709    2.2709    5.6964 N.ar      1 <0>        -0.5845
     14 C11        -0.7777    1.8037    6.7806 C.ar      1 <0>         0.6180
     15 N3         -1.3420    0.6049    6.8084 N.ar      1 <0>        -0.6279
     16 C12        -1.3254   -0.1784    5.7389 C.ar      1 <0>         0.4614
     17 O2         -1.9080   -1.3989    5.7708 O.3       1 <0>        -0.2626
     18 C13        -2.5352   -1.7866    6.9949 C.3       1 <0>         0.0312
     19 N4         -0.8219    2.5899    7.9132 N.pl3     1 <0>        -0.6875
     20 C14        -0.2049    3.9186    7.9071 C.3       1 <0>         0.1001
     21 C15        -0.0394   -4.4524   -0.0014 C.2       1 <0>         0.5673
     22 O3          0.0117   -5.0221    1.0714 O.2       1 <0>        -0.5032
     23 N5         -0.0714   -5.1676   -1.1433 N.am      1 <0>        -0.6653
     24 C16        -0.1637   -6.5633   -1.0926 C.ar      1 <0>         0.1245
     25 C17        -0.7242   -7.1837    0.0157 C.ar      1 <0>        -0.0747
     26 C18        -0.8144   -8.5614    0.0628 C.ar      1 <0>        -0.1035
     27 C19        -0.3470   -9.3237   -0.9920 C.ar      1 <0>        -0.0640
     28 C20         0.2124   -8.7107   -2.0980 C.ar      1 <0>        -0.2000
     29 C21         0.3005   -7.3316   -2.1548 C.ar      1 <0>         0.1144
     30 F1          0.8419   -6.7321   -3.2377 F         1 <0>        -0.1223
     31 C22         0.7209   -9.5455   -3.2449 C.3       1 <0>         0.5150
     32 F2          0.5189  -10.9004   -2.9610 F         1 <0>        -0.1711
     33 F3          0.0287   -9.2054   -4.4121 F         1 <0>        -0.1716
     34 F4          2.0872   -9.3058   -3.4264 F         1 <0>        -0.1712
     35 H1          0.8730    1.6822   -0.2771 H         1 <0>         0.0790
     36 H2         -0.7044    1.6205   -1.0995 H         1 <0>         0.0776
     37 H3         -0.6294    1.6914    0.6775 H         1 <0>         0.0683
     38 H4         -0.1958   -0.4337   -2.2829 H         1 <0>         0.1371
     39 H5         -0.1507   -2.8899   -2.2004 H         1 <0>         0.1273
     40 H6          0.0113   -2.7353    2.0819 H         1 <0>         0.1583
     41 H7          0.4527    0.7498    2.2720 H         1 <0>         0.4088
     42 H8          0.3925    1.9428    3.7141 H         1 <0>         0.1755
     43 H9         -2.9615   -2.7837    6.8848 H         1 <0>         0.1049
     44 H10        -1.7957   -1.7940    7.7956 H         1 <0>         0.0640
     45 H11        -3.3268   -1.0778    7.2379 H         1 <0>         0.0635
     46 H12        -1.2616    2.2630    8.7136 H         1 <0>         0.4191
     47 H13        -0.6755    4.5342    7.1406 H         1 <0>         0.0657
     48 H14        -0.3398    4.3863    8.8823 H         1 <0>         0.0809
     49 H15         0.8599    3.8237    7.6938 H         1 <0>         0.0658
     50 H16        -0.0305   -4.7150   -2.0003 H         1 <0>         0.4166
     51 H17        -1.0890   -6.5898    0.8406 H         1 <0>         0.1666
     52 H18        -1.2504   -9.0439    0.9250 H         1 <0>         0.1491
     53 H19        -0.4188  -10.4006   -0.9518 H         1 <0>         0.1513
@<TRIPOS>BOND
     1    1    2 1
     2    1   35 1
     3    1   36 1
     4    1   37 1
     5    2    7 ar
     6    2    3 ar
     7    3    4 ar
     8    3   38 1
     9    4    5 ar
    10    4   39 1
    11    5    6 ar
    12    5   21 1
    13    6    7 ar
    14    6   40 1
    15    7    8 1
    16    8    9 am
    17    8   41 1
    18    9   10 2
    19    9   11 1
    20   11   16 ar
    21   11   12 ar
    22   12   13 ar
    23   12   42 1
    24   13   14 ar
    25   14   15 ar
    26   14   19 1
    27   15   16 ar
    28   16   17 1
    29   17   18 1
    30   18   43 1
    31   18   44 1
    32   18   45 1
    33   19   20 1
    34   19   46 1
    35   20   47 1
    36   20   48 1
    37   20   49 1
    38   21   22 2
    39   21   23 am
    40   23   24 1
    41   23   50 1
    42   24   29 ar
    43   24   25 ar
    44   25   26 ar
    45   25   51 1
    46   26   27 ar
    47   26   52 1
    48   27   28 ar
    49   27   53 1
    50   28   29 ar
    51   28   31 1
    52   29   30 1
    53   31   32 1
    54   31   33 1
    55   31   34 1
@<TRIPOS>MOLECULE
CHEMBL212948
   31    33     0     0     0
SMALL
USER_CHARGES

@<TRIPOS>ATOM
      1 C1         -0.0173    1.4248    0.0099 C.3       1 <0>         0.0387
      2 O1          0.0021   -0.0041    0.0020 O.3       1 <0>        -0.3157
      3 C2          0.6031   -0.6044   -1.0510 C.ar      1 <0>         0.2164
      4 C3         -0.1399   -0.9243   -2.2019 C.ar      1 <0>        -0.2296
      5 C4          0.4902   -1.5474   -3.2901 C.ar      1 <0>         0.2106
      6 C5          1.8485   -1.8503   -3.2337 C.ar      1 <0>        -0.1199
      7 C6          2.5868   -1.5375   -2.1024 C.ar      1 <0>        -0.0561
      8 C7          1.9671   -0.9054   -1.0042 C.ar      1 <0>        -0.1717
      9 C8          2.7625   -0.5708    0.1897 C.2       1 <0>         0.4332
     10 O2          2.2108   -0.2678    1.2300 O.2       1 <0>        -0.4060
     11 C9          4.2396   -0.6078    0.1104 C.ar      1 <0>        -0.1167
     12 C10         5.0164   -0.0285    1.1076 C.ar      1 <0>        -0.0686
     13 C11         6.3972   -0.0721    1.0172 C.ar      1 <0>        -0.0948
     14 C12         7.0105   -0.6883   -0.0585 C.ar      1 <0>        -0.0986
     15 C13         6.2525   -1.2691   -1.0601 C.ar      1 <0>        -0.0652
     16 C14         4.8635   -1.2338   -0.9846 C.ar      1 <0>        -0.1237
     17 C15         4.0331   -1.8585   -2.0404 C.2       1 <0>         0.4358
     18 O3          4.5315   -2.6110   -2.8533 O.2       1 <0>        -0.4130
     19 O4         -0.2246   -1.8555   -4.3981 O.3       1 <0>        -0.4693
     20 C16        -1.5704   -0.6076   -2.2643 C.2       1 <0>         0.3813
     21 O5         -2.2101   -0.8839   -3.2573 O.2       1 <0>        -0.4320
     22 H1          1.0053    1.8021    0.0021 H         1 <0>         0.0518
     23 H2         -0.5445    1.7859   -0.8732 H         1 <0>         0.0522
     24 H3         -0.5275    1.7763    0.9067 H         1 <0>         0.1091
     25 H4          2.3281   -2.3307   -4.0737 H         1 <0>         0.1595
     26 H5          4.5439    0.4544    1.9502 H         1 <0>         0.1446
     27 H6          6.9997    0.3785    1.7920 H         1 <0>         0.1402
     28 H7          8.0886   -0.7161   -0.1174 H         1 <0>         0.1403
     29 H8          6.7374   -1.7482   -1.8977 H         1 <0>         0.1445
     30 H9         -0.2418   -1.1535   -5.0629 H         1 <0>         0.4069
     31 H10        -2.0545   -0.1283   -1.4262 H         1 <0>         0.1160
@<TRIPOS>BOND
     1    1    2 1
     2    1   22 1
     3    1   23 1
     4    1   24 1
     5    2    3 1
     6    3    8 ar
     7    3    4 ar
     8    4    5 ar
     9    4   20 1
    10    5    6 ar
    11    5   19 1
    12    6    7 ar
    13    6   25 1
    14    7   17 1
    15    7    8 ar
    16    8    9 1
    17    9   10 2
    18    9   11 1
    19   11   16 ar
    20   11   12 ar
    21   12   13 ar
    22   12   26 1
    23   13   14 ar
    24   13   27 1
    25   14   15 ar
    26   14   28 1
    27   15   16 ar
    28   15   29 1
    29   16   17 1
    30   17   18 2
    31   19   30 1
    32   20   21 2
    33   20   31 1
@<TRIPOS>MOLECULE
CHEMBL212948__1
   30    32     0     0     0
SMALL
USER_CHARGES

@<TRIPOS>ATOM
      1 C1         -0.0173    1.4248    0.0099 C.3       1 <0>         0.0495
      2 O1          0.0021   -0.0041    0.0020 O.3       1 <0>        -0.3293
      3 C2         -1.1950   -0.6347    0.0101 C.ar      1 <0>         0.2552
      4 C3         -1.8121   -0.9658    1.2301 C.ar      1 <0>        -0.3596
      5 C4         -3.0535   -1.6203    1.2305 C.ar      1 <0>         0.3272
      6 C5         -3.6758   -1.9432    0.0271 C.ar      1 <0>        -0.1718
      7 C6         -3.0731   -1.6194   -1.1790 C.ar      1 <0>        -0.0589
      8 C7         -1.8285   -0.9558   -1.1936 C.ar      1 <0>        -0.3049
      9 C8         -1.2007   -0.6099   -2.4805 C.2       1 <0>         0.4369
     10 O2         -0.0318   -0.2775   -2.5239 O.2       1 <0>        -0.4553
     11 C9         -2.0066   -0.6714   -3.7200 C.ar      1 <0>        -0.1010
     12 C10        -1.5459   -0.0845   -4.8933 C.ar      1 <0>        -0.0816
     13 C11        -2.3130   -0.1514   -6.0437 C.ar      1 <0>        -0.1057
     14 C12        -3.5354   -0.7985   -6.0350 C.ar      1 <0>        -0.1135
     15 C13        -4.0092   -1.3873   -4.8757 C.ar      1 <0>        -0.0749
     16 C14        -3.2506   -1.3289   -3.7106 C.ar      1 <0>        -0.1177
     17 C15        -3.7341   -1.9615   -2.4614 C.2       1 <0>         0.4359
     18 O3         -4.6682   -2.7378   -2.4840 O.2       1 <0>        -0.4406
     19 O4         -3.6478   -1.9394    2.4047 O.3       1 <0>        -0.6257
     20 C16        -1.1592   -0.6282    2.4991 C.2       1 <0>         0.3810
     21 O5         -1.6924   -0.9143    3.5505 O.2       1 <0>        -0.4591
     22 H1          1.0053    1.8021    0.0021 H         1 <0>         0.0907
     23 H2         -0.5445    1.7859   -0.8732 H         1 <0>         0.0420
     24 H3         -0.5275    1.7763    0.9067 H         1 <0>         0.0430
     25 H4         -4.6307   -2.4477    0.0334 H         1 <0>         0.1265
     26 H5         -0.5924    0.4225   -4.9070 H         1 <0>         0.1382
     27 H6         -1.9546    0.3052   -6.9544 H         1 <0>         0.1305
     28 H7         -4.1244   -0.8442   -6.9391 H         1 <0>         0.1308
     29 H8         -4.9648   -1.8906   -4.8752 H         1 <0>         0.1377
     30 H9         -0.2037   -0.1248    2.4976 H         1 <0>         0.0746
@<TRIPOS>BOND
     1    1    2 1
     2    1   22 1
     3    1   23 1
     4    1   24 1
     5    2    3 1
     6    3    8 ar
     7    3    4 ar
     8    4    5 ar
     9    4   20 1
    10    5    6 ar
    11    5   19 1
    12    6    7 ar
    13    6   25 1
    14    7   17 1
    15    7    8 ar
    16    8    9 1
    17    9   10 2
    18    9   11 1
    19   11   16 ar
    20   11   12 ar
    21   12   13 ar
    22   12   26 1
    23   13   14 ar
    24   13   27 1
    25   14   15 ar
    26   14   28 1
    27   15   16 ar
    28   15   29 1
    29   16   17 1
    30   17   18 2
    31   20   21 2
    32   20   30 1
@<TRIPOS>MOLECULE
CHEMBL564940
   54    60     0     0     0
SMALL
USER_CHARGES

@<TRIPOS>ATOM
      1 C1         -0.0173    1.4248    0.0099 C.3       1 <0>         0.0316
      2 O1          0.0021   -0.0041    0.0020 O.3       1 <0>        -0.3452
      3 C2          0.5984   -0.5997   -1.0427 C.2       1 <0>         0.4396
      4 O2          1.0877    0.0699   -1.9214 O.2       1 <0>        -0.4854
      5 C3          0.6578   -2.1101   -1.1200 C.3       1 <0>         0.1483
      6 C4          1.8034   -2.6005   -0.2517 C.3       1 <0>         0.0810
      7 N1          1.4708   -3.8945    0.3557 N.pl3     1 <0>        -0.4840
      8 C5          1.2854   -4.0304    1.7200 C.ar      1 <0>         0.1359
      9 C6          1.3771   -3.0863    2.7407 C.ar      1 <0>        -0.1481
     10 C7          1.1291   -3.5297    4.0301 C.ar      1 <0>        -0.0734
     11 C8          0.8045   -4.8463    4.3064 C.ar      1 <0>        -0.1508
     12 C9          0.7102   -5.8013    3.3079 C.ar      1 <0>        -0.0391
     13 C10         0.9587   -5.3716    2.0033 C.ar      1 <0>        -0.0996
     14 C11         0.9608   -6.0741    0.7214 C.ar      1 <0>        -0.0130
     15 C12         1.2943   -5.1154   -0.2568 C.ar      1 <0>         0.1654
     16 C13         1.3978   -5.5071   -1.6035 C.ar      1 <0>         0.1676
     17 C14         1.1541   -6.8489   -1.9576 C.ar      1 <0>        -0.0148
     18 C15         1.3502   -6.9358   -3.4030 C.ar      1 <0>        -0.1021
     19 C16         1.2488   -8.0001   -4.3009 C.ar      1 <0>        -0.0388
     20 C17         1.5151   -7.7195   -5.6316 C.ar      1 <0>        -0.1526
     21 C18         1.8636   -6.4493   -6.0545 C.ar      1 <0>        -0.0737
     22 C19         1.9651   -5.3813   -5.1773 C.ar      1 <0>        -0.1504
     23 C20         1.6996   -5.6411   -3.8337 C.ar      1 <0>         0.1376
     24 N2          1.7104   -4.7942   -2.7397 N.pl3     1 <0>        -0.4861
     25 C21         2.0172   -3.3646   -2.8740 C.3       1 <0>         0.0717
     26 C22         0.7877   -2.5249   -2.5852 C.3       1 <0>         0.1011
     27 H1          0.8293   -1.6167   -3.2037 H         1 <0>         0.1038
     28 O3         -0.3847   -3.2562   -2.9703 O.3       1 <0>        -0.5207
     29 C23         0.8009   -7.7926   -0.9838 C.ar      1 <0>        -0.1086
     30 C24         0.7054   -7.4036    0.3616 C.ar      1 <0>        -0.1112
     31 C25         0.3233   -8.6153    1.1086 C.2       1 <0>         0.5854
     32 O4          0.1421   -8.6865    2.3078 O.2       1 <0>        -0.4614
     33 N3          0.2063   -9.6351    0.2396 N.am      1 <0>        -0.6822
     34 C26         0.4729   -9.2287   -1.0153 C.2       1 <0>         0.5850
     35 O5          0.4466   -9.9330   -2.0051 O.2       1 <0>        -0.4609
     36 O6         -0.5755   -2.6292   -0.5989 O.3       1 <0>        -0.4954
     37 H2          1.0053    1.8021    0.0021 H         1 <0>         0.0658
     38 H3         -0.5445    1.7859   -0.8732 H         1 <0>         0.0661
     39 H4         -0.5275    1.7763    0.9067 H         1 <0>         0.1104
     40 H5          2.7442   -2.6443   -0.7722 H         1 <0>         0.1107
     41 H6          1.9340   -1.8743    0.5729 H         1 <0>         0.1097
     42 H7          1.6308   -2.0560    2.5385 H         1 <0>         0.1314
     43 H8          1.1915   -2.8237    4.8451 H         1 <0>         0.1279
     44 H9          0.6193   -5.1368    5.3296 H         1 <0>         0.1273
     45 H10         0.4572   -6.8262    3.5312 H         1 <0>         0.1504
     46 H11         0.9755   -8.9930   -3.9785 H         1 <0>         0.1498
     47 H12         1.4481   -8.5143   -6.3594 H         1 <0>         0.1268
     48 H13         2.0651   -6.2834   -7.1026 H         1 <0>         0.1274
     49 H14         2.2383   -4.3944   -5.5208 H         1 <0>         0.1320
     50 H15         2.8706   -3.0931   -2.2767 H         1 <0>         0.1009
     51 H16         2.3047   -3.1887   -3.9280 H         1 <0>         0.1115
     52 H17        -0.3775   -3.5549   -3.8900 H         1 <0>         0.3801
     53 H18        -0.0387  -10.5412    0.4843 H         1 <0>         0.4313
     54 H19        -0.7485   -2.3836    0.3203 H         1 <0>         0.3840
@<TRIPOS>BOND
     1    1    2 1
     2    1   37 1
     3    1   38 1
     4    1   39 1
     5    2    3 1
     6    3    4 2
     7    3    5 1
     8    5   26 1
     9    5    6 1
    10    5   36 1
    11    6    7 1
    12    6   40 1
    13    6   41 1
    14    7   15 1
    15    7    8 1
    16    8   13 ar
    17    8    9 ar
    18    9   10 ar
    19    9   42 1
    20   10   11 ar
    21   10   43 1
    22   11   12 ar
    23   11   44 1
    24   12   13 ar
    25   12   45 1
    26   13   14 1
    27   14   30 ar
    28   14   15 ar
    29   15   16 ar
    30   16   24 1
    31   16   17 ar
    32   17   18 1
    33   17   29 ar
    34   18   23 ar
    35   18   19 ar
    36   19   20 ar
    37   19   46 1
    38   20   21 ar
    39   20   47 1
    40   21   22 ar
    41   21   48 1
    42   22   23 ar
    43   22   49 1
    44   23   24 1
    45   24   25 1
    46   25   26 1
    47   25   50 1
    48   25   51 1
    49   26   27 1
    50   26   28 1
    51   28   52 1
    52   29   34 1
    53   29   30 ar
    54   30   31 1
    55   31   32 2
    56   31   33 am
    57   33   34 am
    58   33   53 1
    59   34   35 2
    60   36   54 1
@<TRIPOS>MOLECULE
CHEMBL596078
   63    68     0     0     0
SMALL
USER_CHARGES

@<TRIPOS>ATOM
      1 C1          3.3353    1.3633    3.5661 C.ar      1 <0>        -0.1524
      2 C2          3.4180   -0.0168    3.5458 C.ar      1 <0>        -0.0817
      3 C3          3.5017   -0.6873    2.3410 C.ar      1 <0>        -0.1938
      4 C4          3.5028    0.0255    1.1504 C.ar      1 <0>         0.1215
      5 C5          3.4197    1.4104    1.1736 C.ar      1 <0>        -0.1459
      6 C6          3.3362    2.0759    2.3812 C.ar      1 <0>        -0.0828
      7 O1          3.5855   -0.6316   -0.0361 O.3       1 <0>        -0.2601
      8 C7          3.6573   -1.9880   -0.0104 C.ar      1 <0>         0.0961
      9 C8          2.4931   -2.7443   -0.0459 C.ar      1 <0>        -0.1267
     10 C9          2.5627   -4.1211   -0.0195 C.ar      1 <0>        -0.0715
     11 C10         3.8036   -4.7540    0.0426 C.ar      1 <0>        -0.0200
     12 C11         4.9707   -3.9918    0.0777 C.ar      1 <0>        -0.0770
     13 C12         4.8948   -2.6155    0.0458 C.ar      1 <0>        -0.1230
     14 C13         3.8818   -6.2341    0.0716 C.2       1 <0>         0.1648
     15 C14         4.9263   -7.0674   -0.5454 C.2       1 <0>        -0.2984
     16 C15         4.5706   -8.3737   -0.2553 C.2       1 <0>         0.3824
     17 N1          3.4621   -8.3699    0.4628 N.pl3     1 <0>        -0.3620
     18 N2          3.0337   -7.0509    0.6588 N.2       1 <0>        -0.2688
     19 C16         2.8181   -9.5810    0.9801 C.3       1 <0>         0.1286
     20 C17         3.6764  -10.2512    2.0316 C.3       1 <0>        -0.0917
     21 C18         5.0259  -10.7215    1.5328 C.ar      1 <0>        -0.0761
     22 C19         5.6610  -11.5888    2.4347 C.ar      1 <0>        -0.1356
     23 C20         6.8942  -12.1407    2.1671 C.ar      1 <0>         0.1154
     24 C21         7.5421  -11.8445    0.9762 C.ar      1 <0>        -0.1761
     25 C22         6.9342  -10.9919    0.0833 C.ar      1 <0>        -0.1006
     26 C23         5.6857  -10.4275    0.3623 C.ar      1 <0>         0.1515
     27 N3          5.1884   -9.5531   -0.6081 N.pl3     1 <0>        -0.6867
     28 O2          7.4762  -12.9756    3.0690 O.3       1 <0>        -0.3080
     29 C24         8.7556  -13.5114    2.7255 C.3       1 <0>         0.1007
     30 C25         9.2397  -14.4074    3.8364 C.ar      1 <0>        -0.0528
     31 C26         9.9926  -13.8969    4.8828 C.ar      1 <0>        -0.1492
     32 C27        10.4190  -14.7490    5.8839 C.ar      1 <0>         0.0992
     33 N4         10.1181  -16.0325    5.8509 N.ar      1 <0>        -0.4774
     34 C28         9.4043  -16.5524    4.8716 C.ar      1 <0>         0.0987
     35 C29         8.9380  -15.7607    3.8392 C.ar      1 <0>        -0.1496
     36 C30         6.0939   -6.6116   -1.3059 C.2       1 <0>         0.6122
     37 O3          7.1409   -6.3775   -0.7312 O.2       1 <0>        -0.5331
     38 N5          6.0079   -6.4518   -2.6414 N.am      1 <0>        -0.8469
     39 H1          3.2654    1.8853    4.5090 H         1 <0>         0.1254
     40 H2          3.4174   -0.5711    4.4728 H         1 <0>         0.1261
     41 H3          3.5666   -1.7652    2.3257 H         1 <0>         0.1281
     42 H4          3.4208    1.9675    0.2484 H         1 <0>         0.1326
     43 H5          3.2712    3.1538    2.3998 H         1 <0>         0.1315
     44 H6          1.5323   -2.2535   -0.0940 H         1 <0>         0.1373
     45 H7          1.6569   -4.7087   -0.0465 H         1 <0>         0.1377
     46 H8          5.9333   -4.4792    0.1262 H         1 <0>         0.1409
     47 H9          5.7986   -2.0247    0.0685 H         1 <0>         0.1373
     48 H10         1.8571   -9.3144    1.4201 H         1 <0>         0.1127
     49 H11         2.6525  -10.2767    0.1575 H         1 <0>         0.0946
     50 H12         3.8360   -9.5467    2.8479 H         1 <0>         0.0878
     51 H13         3.1339  -11.1115    2.4236 H         1 <0>         0.1078
     52 H14         5.1689  -11.8301    3.3653 H         1 <0>         0.1330
     53 H15         8.5068  -12.2760    0.7537 H         1 <0>         0.1358
     54 H16         7.4290  -10.7551   -0.8470 H         1 <0>         0.1320
     55 H17         5.2800   -9.7807   -1.5466 H         1 <0>         0.4188
     56 H18         8.6727  -14.0877    1.8040 H         1 <0>         0.0771
     57 H19         9.4643  -12.6959    2.5815 H         1 <0>         0.0773
     58 H20        10.2428  -12.8468    4.9150 H         1 <0>         0.1382
     59 H21        11.0059  -14.3592    6.7025 H         1 <0>         0.1605
     60 H22         9.1780  -17.6084    4.8785 H         1 <0>         0.1603
     61 H23         8.3496  -16.1914    3.0426 H         1 <0>         0.1379
     62 H24         5.1735   -6.6384   -3.0994 H         1 <0>         0.4020
     63 H25         6.7805   -6.1502   -3.1445 H         1 <0>         0.4039
@<TRIPOS>BOND
     1    1    6 ar
     2    1    2 ar
     3    1   39 1
     4    2    3 ar
     5    2   40 1
     6    3    4 ar
     7    3   41 1
     8    4    5 ar
     9    4    7 1
    10    5    6 ar
    11    5   42 1
    12    6   43 1
    13    7    8 1
    14    8   13 ar
    15    8    9 ar
    16    9   10 ar
    17    9   44 1
    18   10   11 ar
    19   10   45 1
    20   11   12 ar
    21   11   14 1
    22   12   13 ar
    23   12   46 1
    24   13   47 1
    25   14   18 2
    26   14   15 1
    27   15   16 2
    28   15   36 1
    29   16   27 1
    30   16   17 1
    31   17   18 1
    32   17   19 1
    33   19   20 1
    34   19   48 1
    35   19   49 1
    36   20   21 1
    37   20   50 1
    38   20   51 1
    39   21   26 ar
    40   21   22 ar
    41   22   23 ar
    42   22   52 1
    43   23   24 ar
    44   23   28 1
    45   24   25 ar
    46   24   53 1
    47   25   26 ar
    48   25   54 1
    49   26   27 1
    50   27   55 1
    51   28   29 1
    52   29   30 1
    53   29   56 1
    54   29   57 1
    55   30   35 ar
    56   30   31 ar
    57   31   32 ar
    58   31   58 1
    59   32   33 ar
    60   32   59 1
    61   33   34 ar
    62   34   35 ar
    63   34   60 1
    64   35   61 1
    65   36   37 2
    66   36   38 am
    67   38   62 1
    68   38   63 1
@<TRIPOS>MOLECULE
CHEMBL187697
   56    59     0     0     0
SMALL
USER_CHARGES

@<TRIPOS>ATOM
      1 C1          3.3346    6.6646    1.8662 C.3       1 <0>        -0.1166
      2 C2          2.6198    7.9870    1.9736 C.ar      1 <0>        -0.0851
      3 C3          2.9338    9.0152    1.1059 C.ar      1 <0>        -0.1055
      4 C4          2.2790   10.2289    1.2033 C.ar      1 <0>        -0.1068
      5 C5          1.3074   10.4185    2.1692 C.ar      1 <0>        -0.1064
      6 C6          0.9886    9.3946    3.0406 C.ar      1 <0>        -0.0243
      7 C7          1.6412    8.1712    2.9409 C.ar      1 <0>         0.1458
      8 N1          1.3165    7.1300    3.8170 N.am      1 <0>        -0.6733
      9 C8          1.3158    7.3443    5.1476 C.2       1 <0>         0.6129
     10 O1          1.4983    8.4664    5.5836 O.2       1 <0>        -0.4895
     11 C9          1.0960    6.2292    6.0677 C.2       1 <0>        -0.3082
     12 C10         1.0491    6.2203    7.4549 C.2       1 <0>         0.1717
     13 N2          0.8327    5.0605    8.0220 N.2       1 <0>        -0.5183
     14 C11         0.6688    3.9622    7.3061 C.2       1 <0>         0.3100
     15 S1          0.8054    4.5022    5.7181 S.3       1 <0>         0.1366
     16 N3          0.4349    2.6772    7.7544 N.pl3     1 <0>        -0.5903
     17 C12         0.2381    2.4392    9.1083 C.ar      1 <0>         0.4388
     18 C13        -0.1092    1.1694    9.5585 C.ar      1 <0>        -0.3297
     19 C14        -0.2952    0.9826   10.9250 C.ar      1 <0>         0.4623
     20 N4         -0.1353    2.0185   11.7465 N.ar      1 <0>        -0.5951
     21 C15         0.1941    3.2060   11.2808 C.ar      1 <0>         0.3736
     22 N5          0.3843    3.4216    9.9951 N.ar      1 <0>        -0.5466
     23 N6         -0.6424   -0.2634   11.4237 N.pl3     1 <0>        -0.7111
     24 C16        -0.8160   -1.3956   10.5103 C.3       1 <0>         0.1278
     25 C17        -1.1949   -2.6432   11.3107 C.3       1 <0>         0.0438
     26 N7         -1.3690   -3.7785   10.3948 N.3       1 <0>        -0.5331
     27 C18        -2.5273   -3.5714    9.5134 C.3       1 <0>         0.0110
     28 C19        -2.6361   -4.7465    8.5381 C.3       1 <0>         0.0629
     29 O2         -2.7302   -5.9666    9.2783 O.3       1 <0>        -0.3841
     30 C20        -1.6182   -6.2005   10.1467 C.3       1 <0>         0.0628
     31 C21        -1.4991   -5.0401   11.1382 C.3       1 <0>         0.0180
     32 Cl1        -0.2306    9.6332    4.2532 Cl        1 <0>        -0.0432
     33 H1          2.7924    6.0132    1.1808 H         1 <0>         0.0755
     34 H2          4.3448    6.8271    1.4904 H         1 <0>         0.0754
     35 H3          3.3835    6.1971    2.8496 H         1 <0>         0.0676
     36 H4          3.6922    8.8707    0.3506 H         1 <0>         0.1338
     37 H5          2.5269   11.0308    0.5238 H         1 <0>         0.1351
     38 H6          0.7977   11.3678    2.2426 H         1 <0>         0.1371
     39 H7          1.0918    6.2537    3.4667 H         1 <0>         0.4086
     40 H8          1.1842    7.1213    8.0348 H         1 <0>         0.1889
     41 H9          0.4081    1.9408    7.1236 H         1 <0>         0.4391
     42 H10        -0.2315    0.3501    8.8655 H         1 <0>         0.1413
     43 H11         0.3162    4.0255   11.9736 H         1 <0>         0.2012
     44 H12        -0.7703   -0.3857   12.3774 H         1 <0>         0.4101
     45 H13        -1.6073   -1.1680    9.7959 H         1 <0>         0.0670
     46 H14         0.1159   -1.5766    9.9747 H         1 <0>         0.0777
     47 H15        -0.4036   -2.8708   12.0250 H         1 <0>         0.0870
     48 H16        -2.1268   -2.4622   11.8463 H         1 <0>         0.0464
     49 H17        -3.4352   -3.5112   10.1135 H         1 <0>         0.0469
     50 H18        -2.3979   -2.6449    8.9539 H         1 <0>         0.0888
     51 H19        -3.5262   -4.6258    7.9207 H         1 <0>         0.1002
     52 H20        -1.7518   -4.7743    7.9016 H         1 <0>         0.0616
     53 H21        -1.7721   -7.1313   10.6926 H         1 <0>         0.1012
     54 H22        -0.7043   -6.2705    9.5569 H         1 <0>         0.0620
     55 H23        -0.6192   -5.1857   11.7649 H         1 <0>         0.0898
     56 H24        -2.3905   -5.0033   11.7643 H         1 <0>         0.0467
@<TRIPOS>BOND
     1    1    2 1
     2    1   33 1
     3    1   34 1
     4    1   35 1
     5    2    7 ar
     6    2    3 ar
     7    3    4 ar
     8    3   36 1
     9    4    5 ar
    10    4   37 1
    11    5    6 ar
    12    5   38 1
    13    6    7 ar
    14    6   32 1
    15    7    8 1
    16    8    9 am
    17    8   39 1
    18    9   10 2
    19    9   11 1
    20   11   15 1
    21   11   12 2
    22   12   13 1
    23   12   40 1
    24   13   14 2
    25   14   15 1
    26   14   16 1
    27   16   17 1
    28   16   41 1
    29   17   22 ar
    30   17   18 ar
    31   18   19 ar
    32   18   42 1
    33   19   20 ar
    34   19   23 1
    35   20   21 ar
    36   21   22 ar
    37   21   43 1
    38   23   24 1
    39   23   44 1
    40   24   25 1
    41   24   45 1
    42   24   46 1
    43   25   26 1
    44   25   47 1
    45   25   48 1
    46   26   31 1
    47   26   27 1
    48   27   28 1
    49   27   49 1
    50   27   50 1
    51   28   29 1
    52   28   51 1
    53   28   52 1
    54   29   30 1
    55   30   31 1
    56   30   53 1
    57   30   54 1
    58   31   55 1
    59   31   56 1
@<TRIPOS>MOLECULE
CHEMBL187697__1
   57    60     0     0     0
SMALL
USER_CHARGES

@<TRIPOS>ATOM
      1 C1          3.3346    6.6646    1.8662 C.3       1 <0>        -0.1160
      2 C2          2.6198    7.9870    1.9736 C.ar      1 <0>        -0.0847
      3 C3          2.9338    9.0152    1.1059 C.ar      1 <0>        -0.1047
      4 C4          2.2790   10.2289    1.2033 C.ar      1 <0>        -0.1038
      5 C5          1.3074   10.4185    2.1692 C.ar      1 <0>        -0.1053
      6 C6          0.9886    9.3946    3.0406 C.ar      1 <0>        -0.0237
      7 C7          1.6412    8.1712    2.9409 C.ar      1 <0>         0.1418
      8 N1          1.3165    7.1300    3.8170 N.am      1 <0>        -0.6710
      9 C8          1.3158    7.3443    5.1476 C.2       1 <0>         0.6086
     10 O1          1.4983    8.4664    5.5836 O.2       1 <0>        -0.4832
     11 C9          1.0960    6.2292    6.0677 C.2       1 <0>        -0.2919
     12 C10         1.0491    6.2203    7.4549 C.2       1 <0>         0.1645
     13 N2          0.8327    5.0605    8.0220 N.2       1 <0>        -0.5131
     14 C11         0.6688    3.9622    7.3061 C.2       1 <0>         0.2915
     15 S1          0.8054    4.5022    5.7181 S.3       1 <0>         0.1486
     16 N3          0.4349    2.6772    7.7544 N.pl3     1 <0>        -0.5907
     17 C12         0.2381    2.4392    9.1083 C.ar      1 <0>         0.4484
     18 C13        -0.1092    1.1694    9.5585 C.ar      1 <0>        -0.3352
     19 C14        -0.2952    0.9826   10.9250 C.ar      1 <0>         0.4578
     20 N4         -0.1353    2.0185   11.7465 N.ar      1 <0>        -0.5892
     21 C15         0.1941    3.2060   11.2808 C.ar      1 <0>         0.3833
     22 N5          0.3843    3.4216    9.9951 N.ar      1 <0>        -0.5357
     23 N6         -0.6424   -0.2634   11.4237 N.pl3     1 <0>        -0.7165
     24 C16        -0.8160   -1.3956   10.5103 C.3       1 <0>         0.1058
     25 C17        -1.1949   -2.6432   11.3107 C.3       1 <0>        -0.0211
     26 N7         -1.3690   -3.7785   10.3948 N.4       1 <0>        -0.3813
     27 C18        -2.5140   -3.5230    9.5100 C.3       1 <0>        -0.0516
     28 C19        -2.6932   -4.7070    8.5566 C.3       1 <0>         0.0366
     29 O2         -2.8753   -5.9032    9.3193 O.3       1 <0>        -0.3550
     30 C20        -1.7957   -6.1827   10.2149 C.3       1 <0>         0.0358
     31 C21        -1.6148   -5.0014   11.1714 C.3       1 <0>        -0.0429
     32 Cl1        -0.2306    9.6332    4.2532 Cl        1 <0>        -0.0441
     33 H1          2.7924    6.0132    1.1808 H         1 <0>         0.0753
     34 H2          4.3448    6.8271    1.4904 H         1 <0>         0.0764
     35 H3          3.3835    6.1971    2.8496 H         1 <0>         0.0659
     36 H4          3.6922    8.8707    0.3506 H         1 <0>         0.1350
     37 H5          2.5269   11.0308    0.5238 H         1 <0>         0.1368
     38 H6          0.7977   11.3678    2.2426 H         1 <0>         0.1385
     39 H7          1.0918    6.2537    3.4667 H         1 <0>         0.4078
     40 H8          1.1842    7.1213    8.0348 H         1 <0>         0.1920
     41 H9          0.4081    1.9408    7.1236 H         1 <0>         0.4382
     42 H10        -0.2315    0.3501    8.8655 H         1 <0>         0.1374
     43 H11         0.3162    4.0255   11.9736 H         1 <0>         0.2075
     44 H12        -0.7703   -0.3857   12.3774 H         1 <0>         0.4169
     45 H13        -1.6073   -1.1680    9.7959 H         1 <0>         0.0859
     46 H14         0.1159   -1.5766    9.9747 H         1 <0>         0.0869
     47 H15        -0.4036   -2.8708   12.0250 H         1 <0>         0.1435
     48 H16        -2.1268   -2.4622   11.8463 H         1 <0>         0.1415
     49 H17        -3.4160   -3.3989   10.1092 H         1 <0>         0.1428
     50 H18        -2.3326   -2.6160    8.9333 H         1 <0>         0.1434
     51 H19        -3.5679   -4.5393    7.9282 H         1 <0>         0.1436
     52 H20        -1.8073   -4.8066    7.9293 H         1 <0>         0.0827
     53 H21        -2.0208   -7.0829   10.7868 H         1 <0>         0.1444
     54 H22        -0.8791   -6.3328    9.6445 H         1 <0>         0.0829
     55 H23        -0.7659   -5.1919   11.8281 H         1 <0>         0.1456
     56 H24        -2.5172   -4.8768   11.7700 H         1 <0>         0.1417
     57 H25        -0.5342   -3.8943    9.8400 H         1 <0>         0.4253
@<TRIPOS>BOND
     1    1    2 1
     2    1   33 1
     3    1   34 1
     4    1   35 1
     5    2    7 ar
     6    2    3 ar
     7    3    4 ar
     8    3   36 1
     9    4    5 ar
    10    4   37 1
    11    5    6 ar
    12    5   38 1
    13    6    7 ar
    14    6   32 1
    15    7    8 1
    16    8    9 am
    17    8   39 1
    18    9   10 2
    19    9   11 1
    20   11   15 1
    21   11   12 2
    22   12   13 1
    23   12   40 1
    24   13   14 2
    25   14   15 1
    26   14   16 1
    27   16   17 1
    28   16   41 1
    29   17   22 ar
    30   17   18 ar
    31   18   19 ar
    32   18   42 1
    33   19   20 ar
    34   19   23 1
    35   20   21 ar
    36   21   22 ar
    37   21   43 1
    38   23   24 1
    39   23   44 1
    40   24   25 1
    41   24   45 1
    42   24   46 1
    43   25   26 1
    44   25   47 1
    45   25   48 1
    46   26   31 1
    47   26   27 1
    48   26   57 1
    49   27   28 1
    50   27   49 1
    51   27   50 1
    52   28   29 1
    53   28   51 1
    54   28   52 1
    55   29   30 1
    56   30   31 1
    57   30   53 1
    58   30   54 1
    59   31   55 1
    60   31   56 1
@<TRIPOS>MOLECULE
CHEMBL416091
   87    93     0     0     0
SMALL
USER_CHARGES

@<TRIPOS>ATOM
      1 C1         -0.1256    1.4543    0.0073 C.3       1 <0>        -0.0457
      2 N1         -0.0890   -0.0142   -0.0071 N.4       1 <0>        -0.3885
      3 C2         -1.4613   -0.5379   -0.0107 C.3       1 <0>        -0.0020
      4 C3         -1.4238   -2.0673   -0.0446 C.3       1 <0>         0.0200
      5 N2         -0.6950   -2.5628    1.1317 N.3       1 <0>        -0.5346
      6 C4          0.6731   -2.0268    1.1620 C.3       1 <0>         0.0191
      7 C5          0.6183   -0.4977    1.1860 C.3       1 <0>        -0.0021
      8 C6         -0.6860   -4.0314    1.1652 C.3       1 <0>         0.0860
      9 C7         -2.1245   -4.5490    1.2253 C.3       1 <0>        -0.1096
     10 C8         -2.1150   -6.0786    1.2602 C.3       1 <0>        -0.1265
     11 C9         -1.3492   -6.5559    2.4958 C.3       1 <0>         0.1752
     12 C10         0.0893   -6.0382    2.4356 C.3       1 <0>        -0.1266
     13 C11         0.0799   -4.5086    2.4007 C.3       1 <0>        -0.1113
     14 N3         -1.3402   -8.0204    2.5292 N.pl3     1 <0>        -0.3741
     15 C12        -1.8600   -8.8001    3.5192 C.ar      1 <0>         0.3734
     16 C13        -1.6304  -10.1370    3.1395 C.ar      1 <0>        -0.3273
     17 C14        -0.9606  -10.1048    1.8972 C.2       1 <0>         0.1409
     18 N4         -0.8013   -8.8605    1.5465 N.2       1 <0>        -0.2438
     19 C15        -0.5116  -11.3070    1.1072 C.3       1 <0>        -0.0045
     20 C16         0.9266  -11.6151    1.4353 C.ar      1 <0>        -0.0624
     21 C17         1.9419  -11.0332    0.6987 C.ar      1 <0>        -0.1167
     22 C18         3.2626  -11.3124    0.9948 C.ar      1 <0>        -0.0819
     23 C19         3.5721  -12.1781    2.0336 C.ar      1 <0>         0.1249
     24 C20         2.5489  -12.7636    2.7756 C.ar      1 <0>         0.1082
     25 C21         1.2275  -12.4744    2.4757 C.ar      1 <0>        -0.1830
     26 O1          2.8463  -13.6129    3.7950 O.3       1 <0>        -0.3153
     27 C22         1.7460  -14.1760    4.5122 C.3       1 <0>         0.0271
     28 N5          4.9104  -12.4631    2.3355 N.am      1 <0>        -0.6610
     29 C23         5.8538  -11.5134    2.1779 C.2       1 <0>         0.5478
     30 O2          5.5324  -10.3838    1.8746 O.2       1 <0>        -0.5228
     31 C24         7.3077  -11.8551    2.3786 C.3       1 <0>        -0.1828
     32 H1          7.6008  -12.8601    2.0749 H         1 <0>         0.1305
     33 C25         8.0146  -11.2498    3.5930 C.3       1 <0>        -0.1422
     34 C26         8.3300  -10.7329    2.1871 C.3       1 <0>        -0.0749
     35 H2          7.9509   -9.7476    1.9160 H         1 <0>         0.1269
     36 C27         9.6652  -11.1018    1.5936 C.ar      1 <0>        -0.0597
     37 C28        10.4737  -12.0244    2.2309 C.ar      1 <0>        -0.1193
     38 C29        11.6984  -12.3628    1.6865 C.ar      1 <0>        -0.1158
     39 C30        12.1145  -11.7790    0.5046 C.ar      1 <0>        -0.1196
     40 C31        11.3056  -10.8570   -0.1332 C.ar      1 <0>        -0.1169
     41 C32        10.0790  -10.5219    0.4090 C.ar      1 <0>        -0.1090
     42 C33        -2.0750  -11.1602    3.9987 C.ar      1 <0>         0.5214
     43 N6         -2.6894  -10.8161    5.1253 N.ar      1 <0>        -0.6056
     44 C34        -2.8823   -9.5473    5.4395 C.ar      1 <0>         0.3913
     45 N7         -2.4857   -8.5576    4.6697 N.ar      1 <0>        -0.5780
     46 N8         -1.8779  -12.4889    3.6778 N.pl3     1 <0>        -0.8260
     47 H3          0.8927    1.8431    0.0086 H         1 <0>         0.1240
     48 H4         -0.6504    1.8133   -0.8780 H         1 <0>         0.1239
     49 H5         -0.6462    1.7960    0.9019 H         1 <0>         0.1231
     50 H6         -1.9788   -0.2070    0.8898 H         1 <0>         0.1377
     51 H7         -1.9891   -0.1678   -0.8896 H         1 <0>         0.1352
     52 H8         -2.4418   -2.4564   -0.0322 H         1 <0>         0.1264
     53 H9         -0.9184   -2.3986   -0.9517 H         1 <0>         0.0607
     54 H10         1.1849   -2.3864    2.0547 H         1 <0>         0.1273
     55 H11         1.2131   -2.3575    0.2748 H         1 <0>         0.0609
     56 H12         1.6323   -0.0979    1.1942 H         1 <0>         0.1353
     57 H13         0.0902   -0.1671    2.0804 H         1 <0>         0.1378
     58 H14        -0.2000   -4.4123    0.2669 H         1 <0>         0.0573
     59 H15        -2.6104   -4.1681    2.1235 H         1 <0>         0.0817
     60 H16        -2.6701   -4.2091    0.3451 H         1 <0>         0.0718
     61 H17        -3.1399   -6.4474    1.3030 H         1 <0>         0.0760
     62 H18        -1.6291   -6.4595    0.3619 H         1 <0>         0.0792
     63 H19        -1.8352   -6.1749    3.3940 H         1 <0>         0.1105
     64 H20         0.6349   -6.3782    3.3159 H         1 <0>         0.0757
     65 H21         0.5753   -6.4191    1.5374 H         1 <0>         0.0797
     66 H22         1.1047   -4.1398    2.3579 H         1 <0>         0.0723
     67 H23        -0.4061   -4.1277    3.2990 H         1 <0>         0.0817
     68 H24        -1.1344  -12.1638    1.3640 H         1 <0>         0.0876
     69 H25        -0.6041  -11.0968    0.0417 H         1 <0>         0.1064
     70 H26         1.7021  -10.3590   -0.1103 H         1 <0>         0.1307
     71 H27         4.0535  -10.8570    0.4173 H         1 <0>         0.1423
     72 H28         0.4323  -12.9235    3.0521 H         1 <0>         0.1298
     73 H29         2.1216  -14.8333    5.2964 H         1 <0>         0.1050
     74 H30         1.1566  -13.3759    4.9601 H         1 <0>         0.0552
     75 H31         1.1204  -14.7483    3.8271 H         1 <0>         0.0574
     76 H32         5.1580  -13.3438    2.6578 H         1 <0>         0.4167
     77 H33         7.4279  -10.6044    4.2469 H         1 <0>         0.1057
     78 H34         8.7729  -11.8564    4.0881 H         1 <0>         0.1130
     79 H35        10.1486  -12.4806    3.1543 H         1 <0>         0.1238
     80 H36        12.3304  -13.0831    2.1847 H         1 <0>         0.1244
     81 H37        13.0717  -12.0428    0.0796 H         1 <0>         0.1237
     82 H38        11.6308  -10.4006   -1.0564 H         1 <0>         0.1241
     83 H39         9.4454   -9.8044   -0.0912 H         1 <0>         0.1225
     84 H40        -3.3867   -9.3136    6.3655 H         1 <0>         0.2055
     85 H41        -1.4936  -12.7289    2.8201 H         1 <0>         0.4092
     86 H42        -2.1236  -13.1822    4.3101 H         1 <0>         0.4134
     87 H43         0.3934   -0.3304   -0.8350 H         1 <0>         0.4223
@<TRIPOS>BOND
     1    1    2 1
     2    1   47 1
     3    1   48 1
     4    1   49 1
     5    2    7 1
     6    2    3 1
     7    2   87 1
     8    3    4 1
     9    3   50 1
    10    3   51 1
    11    4    5 1
    12    4   52 1
    13    4   53 1
    14    5    6 1
    15    5    8 1
    16    6    7 1
    17    6   54 1
    18    6   55 1
    19    7   56 1
    20    7   57 1
    21    8   13 1
    22    8    9 1
    23    8   58 1
    24    9   10 1
    25    9   59 1
    26    9   60 1
    27   10   11 1
    28   10   61 1
    29   10   62 1
    30   11   12 1
    31   11   14 1
    32   11   63 1
    33   12   13 1
    34   12   64 1
    35   12   65 1
    36   13   66 1
    37   13   67 1
    38   14   18 1
    39   14   15 1
    40   15   45 ar
    41   15   16 ar
    42   16   17 1
    43   16   42 ar
    44   17   18 2
    45   17   19 1
    46   19   20 1
    47   19   68 1
    48   19   69 1
    49   20   25 ar
    50   20   21 ar
    51   21   22 ar
    52   21   70 1
    53   22   23 ar
    54   22   71 1
    55   23   24 ar
    56   23   28 1
    57   24   25 ar
    58   24   26 1
    59   25   72 1
    60   26   27 1
    61   27   73 1
    62   27   74 1
    63   27   75 1
    64   28   29 am
    65   28   76 1
    66   29   30 2
    67   29   31 1
    68   31   32 1
    69   31   34 1
    70   31   33 1
    71   33   34 1
    72   33   77 1
    73   33   78 1
    74   34   35 1
    75   34   36 1
    76   36   41 ar
    77   36   37 ar
    78   37   38 ar
    79   37   79 1
    80   38   39 ar
    81   38   80 1
    82   39   40 ar
    83   39   81 1
    84   40   41 ar
    85   40   82 1
    86   41   83 1
    87   42   43 ar
    88   42   46 1
    89   43   44 ar
    90   44   45 ar
    91   44   84 1
    92   46   85 1
    93   46   86 1
@<TRIPOS>MOLECULE
CHEMBL416091__1
   87    93     0     0     0
SMALL
USER_CHARGES

@<TRIPOS>ATOM
      1 C1         -0.1227    1.4523    0.0002 C.3       1 <0>         0.0195
      2 N1         -0.0865   -0.0162   -0.0135 N.3       1 <0>        -0.5433
      3 C2         -1.4425   -0.5757   -0.1048 C.3       1 <0>         0.0255
      4 C3         -1.3575   -2.1019   -0.1764 C.3       1 <0>        -0.0067
      5 N2         -0.6787   -2.6115    1.0223 N.4       1 <0>        -0.3837
      6 C4          0.6825   -2.0634    1.0866 C.3       1 <0>        -0.0069
      7 C5          0.6145   -0.5368    1.1687 C.3       1 <0>         0.0256
      8 C6         -0.6135   -4.0778    0.9617 C.3       1 <0>         0.0238
      9 C7         -2.0313   -4.6491    0.8966 C.3       1 <0>        -0.1362
     10 C8         -1.9634   -6.1763    0.8335 C.3       1 <0>        -0.1250
     11 C9         -1.2563   -6.7074    2.0821 C.3       1 <0>         0.1727
     12 C10         0.1615   -6.1361    2.1472 C.3       1 <0>        -0.1254
     13 C11         0.0936   -4.6089    2.2103 C.3       1 <0>        -0.1364
     14 N3         -1.1913   -8.1697    2.0217 N.pl3     1 <0>        -0.3800
     15 C12        -1.7394   -9.0317    2.9243 C.ar      1 <0>         0.3753
     16 C13        -1.4341  -10.3313    2.4747 C.ar      1 <0>        -0.3273
     17 C14        -0.6913  -10.1924    1.2823 C.2       1 <0>         0.1491
     18 N4         -0.5603   -8.9226    1.0233 N.2       1 <0>        -0.2469
     19 C15        -0.1474  -11.3225    0.4467 C.3       1 <0>        -0.0058
     20 C16         1.2791  -11.6005    0.8454 C.ar      1 <0>        -0.0646
     21 C17         2.3137  -10.9349    0.2139 C.ar      1 <0>        -0.1167
     22 C18         3.6238  -11.1861    0.5750 C.ar      1 <0>        -0.0820
     23 C19         3.9032  -12.1077    1.5735 C.ar      1 <0>         0.1266
     24 C20         2.8605  -12.7774    2.2095 C.ar      1 <0>         0.1085
     25 C21         1.5495  -12.5160    1.8453 C.ar      1 <0>        -0.1832
     26 O1          3.1283  -13.6818    3.1890 O.3       1 <0>        -0.3149
     27 C22         2.0094  -14.3302    3.7969 C.3       1 <0>         0.0271
     28 N5          5.2308  -12.3644    1.9410 N.am      1 <0>        -0.6615
     29 C23         6.1436  -11.3734    1.9054 C.2       1 <0>         0.5488
     30 O2          5.7969  -10.2383    1.6556 O.2       1 <0>        -0.5233
     31 C24         7.5949  -11.6758    2.1759 C.3       1 <0>        -0.1836
     32 H1          7.9457  -12.6472    1.8275 H         1 <0>         0.1307
     33 C25         8.2015  -11.1281    3.4694 C.3       1 <0>        -0.1422
     34 C26         8.5817  -10.5077    2.1226 C.3       1 <0>        -0.0739
     35 H2          8.1811   -9.5206    1.8919 H         1 <0>         0.1269
     36 C27         9.9643  -10.7885    1.5929 C.ar      1 <0>        -0.0606
     37 C28        10.7682  -11.7222    2.2197 C.ar      1 <0>        -0.1193
     38 C29        12.0364  -11.9797    1.7338 C.ar      1 <0>        -0.1158
     39 C30        12.5006  -11.3039    0.6208 C.ar      1 <0>        -0.1192
     40 C31        11.6964  -10.3708   -0.0065 C.ar      1 <0>        -0.1167
     41 C32        10.4266  -10.1164    0.4769 C.ar      1 <0>        -0.1088
     42 C33        -1.8896  -11.4247    3.2361 C.ar      1 <0>         0.5230
     43 N6         -2.5850  -11.1786    4.3412 N.ar      1 <0>        -0.6035
     44 C34        -2.8470   -9.9413    4.7234 C.ar      1 <0>         0.3946
     45 N7         -2.4436   -8.8889    4.0458 N.ar      1 <0>        -0.5811
     46 N8         -1.6206  -12.7212    2.8436 N.pl3     1 <0>        -0.8240
     47 H3          0.8957    1.8409    0.0020 H         1 <0>         0.0844
     48 H4         -0.6469    1.8111   -0.8855 H         1 <0>         0.0838
     49 H5         -0.6438    1.7946    0.8943 H         1 <0>         0.0394
     50 H6         -2.0161   -0.2843    0.7750 H         1 <0>         0.0602
     51 H7         -1.9329   -0.1963   -1.0013 H         1 <0>         0.1237
     52 H8         -2.3629   -2.5196   -0.2299 H         1 <0>         0.1372
     53 H9         -0.7954   -2.3933   -1.0637 H         1 <0>         0.1383
     54 H10         1.1895   -2.4525    1.9696 H         1 <0>         0.1374
     55 H11         1.2341   -2.3549    0.1929 H         1 <0>         0.1385
     56 H12         1.6248   -0.1290    1.2014 H         1 <0>         0.1239
     57 H13         0.0747   -0.2447    2.0695 H         1 <0>         0.0603
     58 H14        -0.0587   -4.3804    0.0736 H         1 <0>         0.1422
     59 H15        -2.5861   -4.3465    1.7847 H         1 <0>         0.0911
     60 H16        -2.5350   -4.2708    0.0071 H         1 <0>         0.0965
     61 H17        -2.9734   -6.5833    0.7871 H         1 <0>         0.0899
     62 H18        -1.4086   -6.4789   -0.0546 H         1 <0>         0.0906
     63 H19        -1.8111   -6.4048    2.9702 H         1 <0>         0.1129
     64 H20         0.6652   -6.5144    3.0367 H         1 <0>         0.0896
     65 H21         0.7163   -6.4387    1.2591 H         1 <0>         0.0910
     66 H22         1.1036   -4.2018    2.2567 H         1 <0>         0.0967
     67 H23        -0.4612   -4.3063    3.0984 H         1 <0>         0.0909
     68 H24        -0.7503  -12.2161    0.6076 H         1 <0>         0.0884
     69 H25        -0.1828  -11.0451   -0.6068 H         1 <0>         0.1077
     70 H26         2.0974  -10.2173   -0.5636 H         1 <0>         0.1307
     71 H27         4.4299  -10.6654    0.0796 H         1 <0>         0.1430
     72 H28         0.7389  -13.0306    2.3397 H         1 <0>         0.1295
     73 H29         1.3624  -13.5833    4.2569 H         1 <0>         0.0547
     74 H30         1.4502  -14.8774    3.0380 H         1 <0>         0.0576
     75 H31         2.3621  -15.0246    4.5595 H         1 <0>         0.1056
     76 H32         5.4928  -13.2553    2.2211 H         1 <0>         0.4172
     77 H33         7.5507  -10.5491    4.1247 H         1 <0>         0.1054
     78 H34         8.9515  -11.7390    3.9717 H         1 <0>         0.1132
     79 H35        10.4055  -12.2502    3.0892 H         1 <0>         0.1236
     80 H36        12.6648  -12.7087    2.2239 H         1 <0>         0.1245
     81 H37        13.4918  -11.5046    0.2416 H         1 <0>         0.1239
     82 H38        12.0592   -9.8425   -0.8758 H         1 <0>         0.1244
     83 H39         9.7968   -9.3901   -0.0154 H         1 <0>         0.1226
     84 H40        -3.4161   -9.7880    5.6285 H         1 <0>         0.2066
     85 H41        -1.1753  -12.8896    1.9985 H         1 <0>         0.4100
     86 H42        -1.8770  -13.4634    3.4131 H         1 <0>         0.4147
     87 H43        -1.1929   -2.3318    1.8442 H         1 <0>         0.4183
@<TRIPOS>BOND
     1    1    2 1
     2    1   47 1
     3    1   48 1
     4    1   49 1
     5    2    7 1
     6    2    3 1
     7    3    4 1
     8    3   50 1
     9    3   51 1
    10    4    5 1
    11    4   52 1
    12    4   53 1
    13    5    6 1
    14    5    8 1
    15    5   87 1
    16    6    7 1
    17    6   54 1
    18    6   55 1
    19    7   56 1
    20    7   57 1
    21    8   13 1
    22    8    9 1
    23    8   58 1
    24    9   10 1
    25    9   59 1
    26    9   60 1
    27   10   11 1
    28   10   61 1
    29   10   62 1
    30   11   12 1
    31   11   14 1
    32   11   63 1
    33   12   13 1
    34   12   64 1
    35   12   65 1
    36   13   66 1
    37   13   67 1
    38   14   18 1
    39   14   15 1
    40   15   45 ar
    41   15   16 ar
    42   16   17 1
    43   16   42 ar
    44   17   18 2
    45   17   19 1
    46   19   20 1
    47   19   68 1
    48   19   69 1
    49   20   25 ar
    50   20   21 ar
    51   21   22 ar
    52   21   70 1
    53   22   23 ar
    54   22   71 1
    55   23   24 ar
    56   23   28 1
    57   24   25 ar
    58   24   26 1
    59   25   72 1
    60   26   27 1
    61   27   73 1
    62   27   74 1
    63   27   75 1
    64   28   29 am
    65   28   76 1
    66   29   30 2
    67   29   31 1
    68   31   32 1
    69   31   34 1
    70   31   33 1
    71   33   34 1
    72   33   77 1
    73   33   78 1
    74   34   35 1
    75   34   36 1
    76   36   41 ar
    77   36   37 ar
    78   37   38 ar
    79   37   79 1
    80   38   39 ar
    81   38   80 1
    82   39   40 ar
    83   39   81 1
    84   40   41 ar
    85   40   82 1
    86   41   83 1
    87   42   43 ar
    88   42   46 1
    89   43   44 ar
    90   44   45 ar
    91   44   84 1
    92   46   85 1
    93   46   86 1
@<TRIPOS>MOLECULE
CHEMBL398422
   44    47     0     0     0
SMALL
USER_CHARGES

@<TRIPOS>ATOM
      1 C1         -2.6323   -2.2474    2.6426 C.3       1 <0>        -0.1069
      2 C2         -1.8313   -1.9805    1.3943 C.ar      1 <0>        -0.1205
      3 C3         -2.0404   -2.7563    0.2621 C.ar      1 <0>        -0.0548
      4 C4         -1.3191   -2.5291   -0.8879 C.ar      1 <0>        -0.1356
      5 C5         -0.3679   -1.5119   -0.9246 C.ar      1 <0>         0.1350
      6 C6         -0.1488   -0.7199    0.2170 C.ar      1 <0>        -0.1787
      7 C7         -0.8982   -0.9619    1.3827 C.ar      1 <0>         0.2158
      8 N1         -0.6967   -0.1815    2.5214 N.pl3     1 <0>        -0.6586
      9 C8         -1.0154    1.1676    2.5024 C.ar      1 <0>         0.4778
     10 C9         -1.3909    1.7904    1.3098 C.ar      1 <0>        -0.3244
     11 C10        -1.6997    3.1362    1.3383 C.ar      1 <0>         0.2119
     12 N2         -1.6315    3.7928    2.4872 N.ar      1 <0>        -0.5864
     13 C11        -1.2723    3.1765    3.6036 C.ar      1 <0>         0.5956
     14 N3         -0.9736    1.8861    3.6198 N.ar      1 <0>        -0.6109
     15 N4         -1.2131    3.8983    4.7844 N.pl3     1 <0>        -0.6374
     16 C12        -1.6431    5.2287    4.8130 C.ar      1 <0>         0.1639
     17 C13        -2.6871    5.6396    3.9923 C.ar      1 <0>        -0.0864
     18 C14        -3.1160    6.9532    4.0172 C.ar      1 <0>        -0.1061
     19 C15        -2.5105    7.8659    4.8571 C.ar      1 <0>        -0.1052
     20 C16        -1.4614    7.4635    5.6851 C.ar      1 <0>        -0.1192
     21 C17        -1.0319    6.1365    5.6639 C.ar      1 <0>        -0.0905
     22 C18        -0.8108    8.4394    6.5855 C.2       1 <0>         0.5647
     23 O1          0.1026    8.0868    7.3057 O.2       1 <0>        -0.5395
     24 N5         -1.2306    9.7199    6.6076 N.am      1 <0>        -0.8502
     25 C19         0.8592    0.2148   -0.1174 C.2       1 <0>         0.0827
     26 N6          1.2226    0.0122   -1.3506 N.2       1 <0>        -0.2436
     27 N7          0.4877   -1.0498   -1.8917 N.pl3     1 <0>        -0.5029
     28 H1          0.5696   -1.3980   -2.7933 H         1 <0>         0.4442
     29 H2         -3.5049   -1.5946    2.6609 H         1 <0>         0.0701
     30 H3         -2.9567   -3.2880    2.6505 H         1 <0>         0.0702
     31 H4         -2.0144   -2.0528    3.5192 H         1 <0>         0.0651
     32 H5         -2.7763   -3.5464    0.2840 H         1 <0>         0.1386
     33 H6         -1.4904   -3.1399   -1.7620 H         1 <0>         0.1324
     34 H7         -0.3335   -0.5828    3.3263 H         1 <0>         0.4179
     35 H8         -1.4383    1.2323    0.3864 H         1 <0>         0.1430
     36 H9         -1.9933    3.6481    0.4338 H         1 <0>         0.1690
     37 H10        -0.8735    3.4809    5.5914 H         1 <0>         0.4248
     38 H11        -3.1645    4.9301    3.3327 H         1 <0>         0.1427
     39 H12        -3.9273    7.2667    3.3770 H         1 <0>         0.1328
     40 H13        -2.8484    8.8916    4.8734 H         1 <0>         0.1265
     41 H14        -0.2234    5.8184    6.3053 H         1 <0>         0.1385
     42 H15        -1.9596   10.0013    6.0328 H         1 <0>         0.4017
     43 H16        -0.8038   10.3601    7.1982 H         1 <0>         0.4062
     44 H17         1.2605    0.9709    0.5412 H         1 <0>         0.1867
@<TRIPOS>BOND
     1    1    2 1
     2    1   29 1
     3    1   30 1
     4    1   31 1
     5    2    7 ar
     6    2    3 ar
     7    3    4 ar
     8    3   32 1
     9    4    5 ar
    10    4   33 1
    11    5   27 1
    12    5    6 ar
    13    6    7 ar
    14    6   25 1
    15    7    8 1
    16    8    9 1
    17    8   34 1
    18    9   14 ar
    19    9   10 ar
    20   10   11 ar
    21   10   35 1
    22   11   12 ar
    23   11   36 1
    24   12   13 ar
    25   13   14 ar
    26   13   15 1
    27   15   16 1
    28   15   37 1
    29   16   21 ar
    30   16   17 ar
    31   17   18 ar
    32   17   38 1
    33   18   19 ar
    34   18   39 1
    35   19   20 ar
    36   19   40 1
    37   20   21 ar
    38   20   22 1
    39   21   41 1
    40   22   23 2
    41   22   24 am
    42   24   42 1
    43   24   43 1
    44   25   26 2
    45   25   44 1
    46   26   27 1
    47   27   28 1
@<TRIPOS>MOLECULE
CHEMBL398422__1
   44    47     0     0     0
SMALL
USER_CHARGES

@<TRIPOS>ATOM
      1 C1         -2.5698   -2.2568    2.6686 C.3       1 <0>        -0.1086
      2 C2         -1.8040   -1.9750    1.4017 C.ar      1 <0>        -0.1113
      3 C3         -2.0320   -2.7675    0.2781 C.ar      1 <0>        -0.0655
      4 C4         -1.3816   -2.5742   -0.8953 C.ar      1 <0>        -0.0927
      5 C5         -0.4298   -1.5391   -1.0195 C.ar      1 <0>         0.1115
      6 C6         -0.1660   -0.6844    0.1487 C.ar      1 <0>        -0.2102
      7 C7         -0.9065   -0.9451    1.3798 C.ar      1 <0>         0.2057
      8 N1         -0.6982   -0.1612    2.5127 N.pl3     1 <0>        -0.6548
      9 C8         -1.0175    1.1878    2.4905 C.ar      1 <0>         0.4769
     10 C9         -1.3948    1.8072    1.2967 C.ar      1 <0>        -0.3277
     11 C10        -1.7046    3.1529    1.3220 C.ar      1 <0>         0.2101
     12 N2         -1.6354    3.8126    2.4690 N.ar      1 <0>        -0.5872
     13 C11        -1.2743    3.1995    3.5865 C.ar      1 <0>         0.5955
     14 N3         -0.9743    1.9094    3.6058 N.ar      1 <0>        -0.6117
     15 N4         -1.2142    3.9244    4.7654 N.pl3     1 <0>        -0.6375
     16 C12        -1.6448    5.2547    4.7909 C.ar      1 <0>         0.1636
     17 C13        -2.6890    5.6632    3.9692 C.ar      1 <0>        -0.0865
     18 C14        -3.1179    6.9769    3.9904 C.ar      1 <0>        -0.1061
     19 C15        -2.5127    7.8920    4.8279 C.ar      1 <0>        -0.1051
     20 C16        -1.4634    7.4920    5.6569 C.ar      1 <0>        -0.1191
     21 C17        -1.0341    6.1648    5.6398 C.ar      1 <0>        -0.0907
     22 C18        -0.8129    8.4704    6.5546 C.2       1 <0>         0.5647
     23 O1          0.1007    8.1199    7.2757 O.2       1 <0>        -0.5396
     24 N5         -1.2331    9.7508    6.5734 N.am      1 <0>        -0.8501
     25 C19         0.7906    0.2295   -0.2413 C.2       1 <0>         0.0931
     26 N6          1.1004   -0.0194   -1.5213 N.pl3     1 <0>        -0.4258
     27 N7          0.3499   -1.1033   -1.9918 N.2       1 <0>        -0.2936
     28 H1          1.7487    0.4778   -2.0441 H         1 <0>         0.4463
     29 H2         -3.4614   -1.6307    2.7011 H         1 <0>         0.0697
     30 H3         -2.8620   -3.3067    2.6906 H         1 <0>         0.0701
     31 H4         -1.9398   -2.0369    3.5305 H         1 <0>         0.0633
     32 H5         -2.7548   -3.5671    0.3452 H         1 <0>         0.1337
     33 H6         -1.5922   -3.2150   -1.7388 H         1 <0>         0.1336
     34 H7         -0.3299   -0.5592    3.3169 H         1 <0>         0.4166
     35 H8         -1.4430    1.2466    0.3748 H         1 <0>         0.1456
     36 H9         -1.9997    3.6621    0.4164 H         1 <0>         0.1684
     37 H10        -0.8734    3.5094    5.5731 H         1 <0>         0.4248
     38 H11        -3.1665    4.9517    3.3118 H         1 <0>         0.1428
     39 H12        -3.9292    7.2885    3.3493 H         1 <0>         0.1329
     40 H13        -2.8507    8.9176    4.8415 H         1 <0>         0.1266
     41 H14        -0.2257    5.8485    6.2822 H         1 <0>         0.1384
     42 H15        -1.9621   10.0305    5.9980 H         1 <0>         0.4018
     43 H16        -0.8064   10.3927    7.1623 H         1 <0>         0.4063
     44 H17         1.2146    1.0082    0.3755 H         1 <0>         0.1820
@<TRIPOS>BOND
     1    1    2 1
     2    1   29 1
     3    1   30 1
     4    1   31 1
     5    2    7 ar
     6    2    3 ar
     7    3    4 ar
     8    3   32 1
     9    4    5 ar
    10    4   33 1
    11    5    6 ar
    12    5   27 2
    13    6    7 ar
    14    6   25 2
    15    7    8 1
    16    8    9 1
    17    8   34 1
    18    9   14 ar
    19    9   10 ar
    20   10   11 ar
    21   10   35 1
    22   11   12 ar
    23   11   36 1
    24   12   13 ar
    25   13   14 ar
    26   13   15 1
    27   15   16 1
    28   15   37 1
    29   16   21 ar
    30   16   17 ar
    31   17   18 ar
    32   17   38 1
    33   18   19 ar
    34   18   39 1
    35   19   20 ar
    36   19   40 1
    37   20   21 ar
    38   20   22 1
    39   21   41 1
    40   22   23 2
    41   22   24 am
    42   24   42 1
    43   24   43 1
    44   25   44 1
    45   25   26 1
    46   26   28 1
    47   26   27 1
@<TRIPOS>MOLECULE
CHEMBL327060
   39    42     0     0     0
SMALL
USER_CHARGES

@<TRIPOS>ATOM
      1 C1          5.1759    0.7630    1.5262 C.3       1 <0>        -0.0959
      2 C2          4.6314   -0.6238    1.2993 C.2       1 <0>        -0.1760
      3 C3          4.9217   -1.2888    0.1695 C.2       1 <0>         0.1408
      4 N1          4.4507   -2.5466   -0.0789 N.am      1 <0>        -0.6305
      5 C4          3.6623   -3.2038    0.7944 C.2       1 <0>         0.5436
      6 C5          3.2935   -2.5585    2.0520 C.ar      1 <0>        -0.1232
      7 C6          3.7859   -1.2601    2.3118 C.ar      1 <0>         0.0258
      8 C7          3.4579   -0.6146    3.5067 C.ar      1 <0>        -0.1278
      9 C8          2.6665   -1.2374    4.4300 C.ar      1 <0>        -0.0552
     10 C9          2.1747   -2.5180    4.2009 C.ar      1 <0>         0.0131
     11 C10         2.4722   -3.1922    3.0062 C.ar      1 <0>         0.1528
     12 N2          1.8635   -4.3929    3.0608 N.2       1 <0>        -0.4923
     13 C11         1.2001   -4.5043    4.1870 C.2       1 <0>         0.5367
     14 N3          1.3715   -3.3767    4.9354 N.pl3     1 <0>        -0.6076
     15 H1          0.9896   -3.2019    5.8097 H         1 <0>         0.4227
     16 N4          0.4628   -5.6053    4.5681 N.pl3     1 <0>        -0.6501
     17 C12         0.4747   -6.7625    3.7805 C.ar      1 <0>         0.1811
     18 C13         0.0298   -6.7140    2.4650 C.ar      1 <0>         0.0058
     19 C14         0.0433   -7.8582    1.6897 C.ar      1 <0>        -0.0867
     20 C15         0.4987   -9.0514    2.2225 C.ar      1 <0>        -0.0138
     21 C16         0.9419   -9.1031    3.5323 C.ar      1 <0>        -0.0909
     22 C17         0.9367   -7.9609    4.3108 C.ar      1 <0>        -0.0232
     23 Cl1         1.5002   -8.0250    5.9516 Cl        1 <0>        -0.0376
     24 Cl2         0.5135  -10.4864    1.2457 Cl        1 <0>        -0.0398
     25 Cl3        -0.5428   -5.2178    1.7961 Cl        1 <0>        -0.0175
     26 O1          3.2607   -4.3254    0.5373 O.2       1 <0>        -0.5018
     27 C18         5.7975   -0.6238   -0.8610 C.3       1 <0>        -0.1271
     28 H2          5.2758    0.9435    2.5965 H         1 <0>         0.0690
     29 H3          6.1522    0.8524    1.0499 H         1 <0>         0.0691
     30 H4          4.4934    1.4961    1.0962 H         1 <0>         0.0686
     31 H5          3.8314    0.3799    3.7013 H         1 <0>         0.1409
     32 H6          2.4199   -0.7287    5.3503 H         1 <0>         0.1277
     33 H7         -0.0642   -5.5780    5.3820 H         1 <0>         0.4249
     34 H8         -0.3024   -7.8211    0.6672 H         1 <0>         0.1549
     35 H9          1.2964  -10.0358    3.9454 H         1 <0>         0.1553
     36 H10         6.8367   -0.9047   -0.6903 H         1 <0>         0.0855
     37 H11         5.4935   -0.9442   -1.8575 H         1 <0>         0.0749
     38 H12         5.6957    0.4584   -0.7804 H         1 <0>         0.0924
     39 H13         4.6916   -2.9813   -0.9119 H         1 <0>         0.4114
@<TRIPOS>BOND
     1    1    2 1
     2    1   28 1
     3    1   29 1
     4    1   30 1
     5    2    7 1
     6    2    3 2
     7    3    4 1
     8    3   27 1
     9    4    5 am
    10    4   39 1
    11    5    6 1
    12    5   26 2
    13    6   11 ar
    14    6    7 ar
    15    7    8 ar
    16    8    9 ar
    17    8   31 1
    18    9   10 ar
    19    9   32 1
    20   10   14 1
    21   10   11 ar
    22   11   12 1
    23   12   13 2
    24   13   14 1
    25   13   16 1
    26   14   15 1
    27   16   17 1
    28   16   33 1
    29   17   22 ar
    30   17   18 ar
    31   18   19 ar
    32   18   25 1
    33   19   20 ar
    34   19   34 1
    35   20   21 ar
    36   20   24 1
    37   21   22 ar
    38   21   35 1
    39   22   23 1
    40   27   36 1
    41   27   37 1
    42   27   38 1
@<TRIPOS>MOLECULE
CHEMBL215969
   54    57     0     0     0
SMALL
USER_CHARGES

@<TRIPOS>ATOM
      1 C1          0.0307    1.5035    0.0088 C.3       1 <0>        -0.1270
      2 C2          0.0391   -0.0035    0.0008 C.ar      1 <0>        -0.0381
      3 C3          0.0395   -0.6862   -1.2002 C.ar      1 <0>        -0.1228
      4 C4          0.0472   -2.0662   -1.2163 C.ar      1 <0>        -0.0789
      5 C5          0.0541   -2.7807   -0.0161 C.ar      1 <0>        -0.1439
      6 C6          0.0537   -2.0964    1.1980 C.ar      1 <0>        -0.0378
      7 C7          0.0522   -0.7052    1.2058 C.ar      1 <0>        -0.0515
      8 C8          0.0583    0.0307    2.4941 C.ar      1 <0>        -0.0771
      9 C9          0.9846    1.0651    2.7005 C.ar      1 <0>        -0.0510
     10 C10         1.0120    1.7560    3.8710 C.ar      1 <0>        -0.1204
     11 C11         0.1046    1.4370    4.8935 C.ar      1 <0>         0.2180
     12 C12        -0.8360    0.3928    4.6947 C.ar      1 <0>        -0.2151
     13 C13        -0.8526   -0.3044    3.4800 C.ar      1 <0>        -0.0354
     14 C14        -1.7347    0.0941    5.7365 C.ar      1 <0>         0.2446
     15 N1         -1.6631    0.7960    6.8481 N.ar      1 <0>        -0.5585
     16 C15        -0.7674    1.7695    7.0006 C.ar      1 <0>         0.5695
     17 N2          0.0987    2.0934    6.0602 N.ar      1 <0>        -0.5744
     18 N3         -0.7445    2.4692    8.1934 N.pl3     1 <0>        -0.7002
     19 C16        -1.6935    2.1336    9.2578 C.3       1 <0>         0.1036
     20 C17         0.0613   -4.2589   -0.0337 C.2       1 <0>         0.5636
     21 O1          0.0673   -4.8792    1.0117 O.2       1 <0>        -0.5104
     22 N4          0.0613   -4.9189   -1.2088 N.am      1 <0>        -0.6649
     23 C18         0.1847   -6.3117   -1.2285 C.ar      1 <0>         0.1480
     24 C19         0.8044   -6.9706   -0.1742 C.ar      1 <0>        -0.0949
     25 C20         0.9243   -8.3461   -0.1966 C.ar      1 <0>        -0.1031
     26 C21         0.4282   -9.0677   -1.2671 C.ar      1 <0>        -0.0856
     27 C22        -0.1891   -8.4150   -2.3181 C.ar      1 <0>        -0.1662
     28 C23        -0.3170   -7.0397   -2.2994 C.ar      1 <0>        -0.0650
     29 C24        -0.9951   -6.3296   -3.4427 C.3       1 <0>        -0.1390
     30 C25        -0.7282   -9.2053   -3.4825 C.3       1 <0>         0.5115
     31 F1         -0.4873  -10.5674   -3.2730 F         1 <0>        -0.1747
     32 F2         -2.1055   -8.9875   -3.5962 F         1 <0>        -0.1744
     33 F3         -0.0924   -8.7948   -4.6590 F         1 <0>        -0.1748
     34 H1          1.0563    1.8726    0.0029 H         1 <0>         0.0796
     35 H2         -0.4919    1.8686   -0.8754 H         1 <0>         0.0728
     36 H3         -0.4783    1.8593    0.9045 H         1 <0>         0.0758
     37 H4          0.0335   -0.1376   -2.1305 H         1 <0>         0.1349
     38 H5          0.0475   -2.5945   -2.1583 H         1 <0>         0.1262
     39 H6          0.0591   -2.6439    2.1290 H         1 <0>         0.1408
     40 H7          1.6859    1.3155    1.9182 H         1 <0>         0.1342
     41 H8          1.7312    2.5489    4.0142 H         1 <0>         0.1398
     42 H9         -1.5668   -1.0978    3.3160 H         1 <0>         0.1365
     43 H10        -2.4664   -0.6926    5.6263 H         1 <0>         0.1789
     44 H11        -0.1001    3.1822    8.3252 H         1 <0>         0.4167
     45 H12        -2.7117    2.2687    8.8928 H         1 <0>         0.0605
     46 H13        -1.5501    1.0958    9.5586 H         1 <0>         0.0606
     47 H14        -1.5249    2.7867   10.1141 H         1 <0>         0.0775
     48 H15        -0.0244   -4.4277   -2.0409 H         1 <0>         0.4129
     49 H16         1.1923   -6.4077    0.6618 H         1 <0>         0.1556
     50 H17         1.4063   -8.8589    0.6226 H         1 <0>         0.1403
     51 H18         0.5235  -10.1434   -1.2823 H         1 <0>         0.1407
     52 H19        -0.2551   -6.0719   -4.2004 H         1 <0>         0.0847
     53 H20        -1.7501   -6.9831   -3.8797 H         1 <0>         0.0836
     54 H21        -1.4704   -5.4203   -3.0749 H         1 <0>         0.0737
@<TRIPOS>BOND
     1    1    2 1
     2    1   34 1
     3    1   35 1
     4    1   36 1
     5    2    7 ar
     6    2    3 ar
     7    3    4 ar
     8    3   37 1
     9    4    5 ar
    10    4   38 1
    11    5    6 ar
    12    5   20 1
    13    6    7 ar
    14    6   39 1
    15    7    8 1
    16    8   13 ar
    17    8    9 ar
    18    9   10 ar
    19    9   40 1
    20   10   11 ar
    21   10   41 1
    22   11   17 ar
    23   11   12 ar
    24   12   13 ar
    25   12   14 ar
    26   13   42 1
    27   14   15 ar
    28   14   43 1
    29   15   16 ar
    30   16   17 ar
    31   16   18 1
    32   18   19 1
    33   18   44 1
    34   19   45 1
    35   19   46 1
    36   19   47 1
    37   20   21 2
    38   20   22 am
    39   22   23 1
    40   22   48 1
    41   23   28 ar
    42   23   24 ar
    43   24   25 ar
    44   24   49 1
    45   25   26 ar
    46   25   50 1
    47   26   27 ar
    48   26   51 1
    49   27   28 ar
    50   27   30 1
    51   28   29 1
    52   29   52 1
    53   29   53 1
    54   29   54 1
    55   30   31 1
    56   30   32 1
    57   30   33 1
@<TRIPOS>MOLECULE
CHEMBL409914
   50    53     0     0     0
SMALL
USER_CHARGES

@<TRIPOS>ATOM
      1 C1          0.7073    1.4901   -0.4300 C.3       1 <0>        -0.1191
      2 C2          0.5750   -0.0085   -0.3418 C.ar      1 <0>        -0.0819
      3 C3          0.4322   -0.7577   -1.4928 C.ar      1 <0>        -0.0989
      4 C4          0.3105   -2.1321   -1.4169 C.ar      1 <0>        -0.1353
      5 C5          0.3312   -2.7681   -0.1815 C.ar      1 <0>         0.1517
      6 C6          0.4747   -2.0231    0.9789 C.ar      1 <0>        -0.0993
      7 C7          0.6026   -0.6384    0.9012 C.ar      1 <0>        -0.0295
      8 C8          0.7617    0.1644    2.1385 C.ar      1 <0>        -0.0682
      9 C9          1.7912    1.1149    2.2241 C.ar      1 <0>        -0.0492
     10 C10         1.9598    1.8642    3.3459 C.ar      1 <0>        -0.1215
     11 C11         1.0961    1.6919    4.4390 C.ar      1 <0>         0.2156
     12 C12         0.0517    0.7338    4.3623 C.ar      1 <0>        -0.2127
     13 C13        -0.1094   -0.0257    3.1965 C.ar      1 <0>        -0.0386
     14 C14        -0.8002    0.5819    5.4730 C.ar      1 <0>         0.2443
     15 N1         -0.5906    1.3345    6.5327 N.ar      1 <0>        -0.5632
     16 C15         0.3996    2.2240    6.5703 C.ar      1 <0>         0.5704
     17 N2          1.2282    2.4099    5.5611 N.ar      1 <0>        -0.5733
     18 N3          0.5660    2.9838    7.7140 N.pl3     1 <0>        -0.8186
     19 N4          0.2067   -4.1601   -0.1086 N.am      1 <0>        -0.6789
     20 C16         0.8883   -4.8496    0.8276 C.2       1 <0>         0.7026
     21 O1          1.5448   -4.2564    1.6617 O.2       1 <0>        -0.5486
     22 N5          0.8423   -6.1965    0.8393 N.am      1 <0>        -0.6811
     23 C17         1.4606   -6.9088    1.8730 C.ar      1 <0>         0.1643
     24 C18         2.0377   -8.1460    1.6175 C.ar      1 <0>        -0.1138
     25 C19         2.6475   -8.8461    2.6396 C.ar      1 <0>        -0.0971
     26 C20         2.6839   -8.3166    3.9168 C.ar      1 <0>        -0.0885
     27 C21         2.1100   -7.0855    4.1745 C.ar      1 <0>        -0.1614
     28 C22         1.5035   -6.3775    3.1551 C.ar      1 <0>        -0.0716
     29 C23         2.1516   -6.5125    5.5677 C.3       1 <0>         0.5086
     30 F1          2.8174   -7.4018    6.4180 F         1 <0>        -0.1761
     31 F2          2.8299   -5.2891    5.5487 F         1 <0>        -0.1721
     32 F3          0.8459   -6.3147    6.0297 F         1 <0>        -0.1761
     33 H1          1.7602    1.7571   -0.5218 H         1 <0>         0.0728
     34 H2          0.1633    1.8521   -1.3024 H         1 <0>         0.0678
     35 H3          0.2943    1.9449    0.4703 H         1 <0>         0.0709
     36 H4          0.4151   -0.2681   -2.4553 H         1 <0>         0.1301
     37 H5          0.1986   -2.7135   -2.3201 H         1 <0>         0.1267
     38 H6          0.4907   -2.5154    1.9400 H         1 <0>         0.1427
     39 H7          2.4593    1.2527    1.3868 H         1 <0>         0.1343
     40 H8          2.7572    2.5907    3.3961 H         1 <0>         0.1393
     41 H9         -0.9031   -0.7546    3.1255 H         1 <0>         0.1344
     42 H10        -1.6074   -0.1354    5.4560 H         1 <0>         0.1781
     43 H11        -0.0324    2.8630    8.4678 H         1 <0>         0.4148
     44 H12         1.2810    3.6375    7.7623 H         1 <0>         0.4158
     45 H13        -0.3701   -4.6288   -0.7320 H         1 <0>         0.4099
     46 H14         0.3807   -6.6722    0.1311 H         1 <0>         0.4124
     47 H15         2.0093   -8.5601    0.6204 H         1 <0>         0.1369
     48 H16         3.0961   -9.8084    2.4416 H         1 <0>         0.1417
     49 H17         3.1614   -8.8662    4.7145 H         1 <0>         0.1414
     50 H18         1.0596   -5.4137    3.3561 H         1 <0>         0.1470
@<TRIPOS>BOND
     1    1    2 1
     2    1   33 1
     3    1   34 1
     4    1   35 1
     5    2    7 ar
     6    2    3 ar
     7    3    4 ar
     8    3   36 1
     9    4    5 ar
    10    4   37 1
    11    5    6 ar
    12    5   19 1
    13    6    7 ar
    14    6   38 1
    15    7    8 1
    16    8   13 ar
    17    8    9 ar
    18    9   10 ar
    19    9   39 1
    20   10   11 ar
    21   10   40 1
    22   11   17 ar
    23   11   12 ar
    24   12   13 ar
    25   12   14 ar
    26   13   41 1
    27   14   15 ar
    28   14   42 1
    29   15   16 ar
    30   16   17 ar
    31   16   18 1
    32   18   43 1
    33   18   44 1
    34   19   20 am
    35   19   45 1
    36   20   21 2
    37   20   22 am
    38   22   23 1
    39   22   46 1
    40   23   28 ar
    41   23   24 ar
    42   24   25 ar
    43   24   47 1
    44   25   26 ar
    45   25   48 1
    46   26   27 ar
    47   26   49 1
    48   27   28 ar
    49   27   29 1
    50   28   50 1
    51   29   30 1
    52   29   31 1
    53   29   32 1
@<TRIPOS>MOLECULE
CHEMBL272888
   74    78     0     0     0
SMALL
USER_CHARGES

@<TRIPOS>ATOM
      1 C1          1.5721    0.9016    0.3894 C.3       1 <0>        -0.1309
      2 C2          0.9698   -0.4719    0.2425 C.ar      1 <0>        -0.0237
      3 C3          0.9993   -1.1113   -0.9803 C.ar      1 <0>        -0.1079
      4 C4          0.4483   -2.3710   -1.1202 C.ar      1 <0>        -0.1026
      5 C5         -0.1390   -3.0029   -0.0302 C.ar      1 <0>         0.1296
      6 C6         -0.1734   -2.3696    1.2023 C.ar      1 <0>        -0.0799
      7 C7          0.3871   -1.1000    1.3446 C.ar      1 <0>        -0.1278
      8 C8          0.3591   -0.4198    2.6568 C.2       1 <0>         0.5673
      9 O1          0.7771    0.7170    2.7613 O.2       1 <0>        -0.5100
     10 N1         -0.1299   -1.0599    3.7374 N.am      1 <0>        -0.6569
     11 C9         -0.0682   -0.4529    4.9989 C.ar      1 <0>        -0.0038
     12 C10        -0.2167    0.9245    5.1348 C.ar      1 <0>         0.1998
     13 N2         -0.1526    1.4626    6.3413 N.ar      1 <0>        -0.5386
     14 C11         0.0498    0.7079    7.4109 C.ar      1 <0>         0.5398
     15 N3          0.1958   -0.6054    7.3194 N.ar      1 <0>        -0.5393
     16 C12         0.1373   -1.2135    6.1464 C.ar      1 <0>         0.1684
     17 N4          0.1109    1.3088    8.6594 N.pl3     1 <0>        -0.6391
     18 C13         0.4404    0.5471    9.7878 C.ar      1 <0>         0.1392
     19 C14         1.3515   -0.4954    9.6800 C.ar      1 <0>        -0.0677
     20 C15         1.6763   -1.2462   10.7923 C.ar      1 <0>        -0.1620
     21 C16         1.0923   -0.9585   12.0190 C.ar      1 <0>         0.1752
     22 C17         0.1815    0.0843   12.1269 C.ar      1 <0>        -0.1606
     23 C18        -0.1397    0.8381   11.0155 C.ar      1 <0>        -0.1022
     24 N5          1.4211   -1.7198   13.1464 N.pl3     1 <0>        -0.6457
     25 C19         0.7222   -1.5188   14.4251 C.3       1 <0>         0.1009
     26 C20         0.2472   -2.8820   14.9386 C.3       1 <0>        -0.0233
     27 N6          1.3894   -3.8020   15.0104 N.4       1 <0>        -0.3836
     28 C21         1.9176   -4.0496   13.6629 C.3       1 <0>        -0.0232
     29 C22         2.4714   -2.7480   13.0846 C.3       1 <0>         0.0996
     30 C23         0.9554   -5.0730   15.6055 C.3       1 <0>        -0.0470
     31 N7         -0.6957   -4.2777   -0.1772 N.am      1 <0>        -0.6672
     32 C24        -1.7940   -4.6186    0.5257 C.2       1 <0>         0.5639
     33 O2         -2.3558   -3.7899    1.2153 O.2       1 <0>        -0.5113
     34 C25        -2.3155   -6.0000    0.4580 C.ar      1 <0>        -0.1408
     35 C26        -1.6694   -6.9556   -0.3285 C.ar      1 <0>        -0.0535
     36 C27        -2.1613   -8.2429   -0.3872 C.ar      1 <0>        -0.1219
     37 C28        -3.2926   -8.5881    0.3312 C.ar      1 <0>        -0.0409
     38 C29        -3.9375   -7.6461    1.1125 C.ar      1 <0>        -0.1886
     39 C30        -3.4526   -6.3563    1.1847 C.ar      1 <0>        -0.0070
     40 C31        -5.1688   -8.0310    1.8915 C.3       1 <0>         0.5101
     41 F1         -5.4606   -9.3805    1.6655 F         1 <0>        -0.1734
     42 F2         -4.9404   -7.8256    3.2563 F         1 <0>        -0.1744
     43 F3         -6.2485   -7.2445    1.4758 F         1 <0>        -0.1717
     44 H1          2.5820    0.8145    0.7902 H         1 <0>         0.0757
     45 H2          1.6088    1.3884   -0.5852 H         1 <0>         0.0634
     46 H3          0.9613    1.4954    1.0694 H         1 <0>         0.1030
     47 H4          1.4542   -0.6254   -1.8308 H         1 <0>         0.1400
     48 H5          0.4737   -2.8660   -2.0798 H         1 <0>         0.1357
     49 H6         -0.6293   -2.8588    2.0503 H         1 <0>         0.1366
     50 H7         -0.5245   -1.9409    3.6419 H         1 <0>         0.4142
     51 H8         -0.3816    1.5455    4.2667 H         1 <0>         0.1863
     52 H9          0.2518   -2.2853    6.0793 H         1 <0>         0.1721
     53 H10        -0.0746    2.2564    8.7511 H         1 <0>         0.4258
     54 H11         1.8057   -0.7191    8.7261 H         1 <0>         0.1373
     55 H12         2.3844   -2.0574   10.7083 H         1 <0>         0.1242
     56 H13        -0.2728    0.3080   13.0808 H         1 <0>         0.1261
     57 H14        -0.8449    1.6517   11.1002 H         1 <0>         0.1310
     58 H15         1.4038   -1.0720   15.1488 H         1 <0>         0.0864
     59 H16        -0.1367   -0.8647   14.2742 H         1 <0>         0.1258
     60 H17        -0.1882   -2.7650   15.9310 H         1 <0>         0.1401
     61 H18        -0.5024   -3.2857   14.2580 H         1 <0>         0.1321
     62 H19         2.7130   -4.7929   13.7152 H         1 <0>         0.1403
     63 H20         1.1174   -4.4180   13.0209 H         1 <0>         0.1321
     64 H21         2.7685   -2.9063   12.0479 H         1 <0>         0.1264
     65 H22         3.3327   -2.4275   13.6707 H         1 <0>         0.0861
     66 H23         0.1714   -5.5136   14.9897 H         1 <0>         0.1214
     67 H24         1.8025   -5.7569   15.6594 H         1 <0>         0.1247
     68 H25         0.5705   -4.8917   16.6090 H         1 <0>         0.1248
     69 H26        -0.2913   -4.9164   -0.7850 H         1 <0>         0.4136
     70 H27        -0.7867   -6.6874   -0.8899 H         1 <0>         0.1378
     71 H28        -1.6627   -8.9830   -0.9955 H         1 <0>         0.1476
     72 H29        -3.6738   -9.5973    0.2815 H         1 <0>         0.1483
     73 H30        -3.9545   -5.6230    1.7985 H         1 <0>         0.1495
     74 H31         2.1124   -3.3944   15.5841 H         1 <0>         0.4244
@<TRIPOS>BOND
     1    1    2 1
     2    1   44 1
     3    1   45 1
     4    1   46 1
     5    2    7 ar
     6    2    3 ar
     7    3    4 ar
     8    3   47 1
     9    4    5 ar
    10    4   48 1
    11    5    6 ar
    12    5   31 1
    13    6    7 ar
    14    6   49 1
    15    7    8 1
    16    8    9 2
    17    8   10 am
    18   10   11 1
    19   10   50 1
    20   11   16 ar
    21   11   12 ar
    22   12   13 ar
    23   12   51 1
    24   13   14 ar
    25   14   15 ar
    26   14   17 1
    27   15   16 ar
    28   16   52 1
    29   17   18 1
    30   17   53 1
    31   18   23 ar
    32   18   19 ar
    33   19   20 ar
    34   19   54 1
    35   20   21 ar
    36   20   55 1
    37   21   22 ar
    38   21   24 1
    39   22   23 ar
    40   22   56 1
    41   23   57 1
    42   24   29 1
    43   24   25 1
    44   25   26 1
    45   25   58 1
    46   25   59 1
    47   26   27 1
    48   26   60 1
    49   26   61 1
    50   27   28 1
    51   27   30 1
    52   27   74 1
    53   28   29 1
    54   28   62 1
    55   28   63 1
    56   29   64 1
    57   29   65 1
    58   30   66 1
    59   30   67 1
    60   30   68 1
    61   31   32 am
    62   31   69 1
    63   32   33 2
    64   32   34 1
    65   34   39 ar
    66   34   35 ar
    67   35   36 ar
    68   35   70 1
    69   36   37 ar
    70   36   71 1
    71   37   38 ar
    72   37   72 1
    73   38   39 ar
    74   38   40 1
    75   39   73 1
    76   40   41 1
    77   40   42 1
    78   40   43 1
@<TRIPOS>MOLECULE
CHEMBL272888__1
   73    77     0     0     0
SMALL
USER_CHARGES

@<TRIPOS>ATOM
      1 C1          1.5652    0.9068    0.3835 C.3       1 <0>        -0.1304
      2 C2          0.9623   -0.4664    0.2355 C.ar      1 <0>        -0.0251
      3 C3          0.9901   -1.1041   -0.9883 C.ar      1 <0>        -0.1091
      4 C4          0.4386   -2.3635   -1.1293 C.ar      1 <0>        -0.1051
      5 C5         -0.1475   -2.9967   -0.0394 C.ar      1 <0>         0.1291
      6 C6         -0.1802   -2.3651    1.1940 C.ar      1 <0>        -0.0797
      7 C7          0.3808   -1.0958    1.3374 C.ar      1 <0>        -0.1243
      8 C8          0.3547   -0.4174    2.6506 C.2       1 <0>         0.5651
      9 O1          0.7732    0.7191    2.7561 O.2       1 <0>        -0.5123
     10 N1         -0.1331   -1.0589    3.7309 N.am      1 <0>        -0.6539
     11 C9         -0.0697   -0.4536    4.9931 C.ar      1 <0>        -0.0183
     12 C10        -0.2177    0.9236    5.1312 C.ar      1 <0>         0.1998
     13 N2         -0.1520    1.4600    6.3383 N.ar      1 <0>        -0.5459
     14 C11         0.0516    0.7038    7.4066 C.ar      1 <0>         0.5460
     15 N3          0.1972   -0.6094    7.3131 N.ar      1 <0>        -0.5356
     16 C12         0.1370   -1.2159    6.1394 C.ar      1 <0>         0.1730
     17 N4          0.1144    1.3029    8.6558 N.pl3     1 <0>        -0.6338
     18 C13         0.4451    0.5396    9.7828 C.ar      1 <0>         0.1035
     19 C14         1.3558   -0.5029    9.6724 C.ar      1 <0>        -0.0608
     20 C15         1.6819   -1.2553   10.7833 C.ar      1 <0>        -0.1798
     21 C16         1.0994   -0.9692   12.0111 C.ar      1 <0>         0.2071
     22 C17         0.1890    0.0737   12.1215 C.ar      1 <0>        -0.1791
     23 C18        -0.1333    0.8291   11.0116 C.ar      1 <0>        -0.0945
     24 N5          1.4295   -1.7322   13.1370 N.pl3     1 <0>        -0.6324
     25 C19         0.7310   -1.5320   14.4158 C.3       1 <0>         0.1270
     26 C20         0.2392   -2.8930   14.9200 C.3       1 <0>         0.0383
     27 N6          1.3689   -3.8306   14.9694 N.3       1 <0>        -0.5425
     28 C21         1.9233   -4.0681   13.6300 C.3       1 <0>         0.0381
     29 C22         2.4800   -2.7595   13.0712 C.3       1 <0>         0.1262
     30 C23         0.9769   -5.0940   15.6084 C.3       1 <0>         0.0243
     31 N7         -0.7047   -4.2712   -0.1874 N.am      1 <0>        -0.6672
     32 C24        -1.8022   -4.6127    0.5163 C.2       1 <0>         0.5628
     33 O2         -2.3629   -3.7849    1.2078 O.2       1 <0>        -0.5093
     34 C25        -2.3242   -5.9939    0.4475 C.ar      1 <0>        -0.1395
     35 C26        -1.6793   -6.9486   -0.3411 C.ar      1 <0>        -0.0539
     36 C27        -2.1716   -8.2357   -0.4010 C.ar      1 <0>        -0.1227
     37 C28        -3.3020   -8.5816    0.3184 C.ar      1 <0>        -0.0417
     38 C29        -3.9458   -7.6405    1.1017 C.ar      1 <0>        -0.1883
     39 C30        -3.4605   -6.3509    1.1750 C.ar      1 <0>        -0.0065
     40 C31        -5.1762   -8.0262    1.8817 C.3       1 <0>         0.5099
     41 F1         -5.4686   -9.3752    1.6542 F         1 <0>        -0.1742
     42 F2         -4.9460   -7.8226    3.2465 F         1 <0>        -0.1726
     43 F3         -6.2562   -7.2388    1.4684 F         1 <0>        -0.1724
     44 H1          2.5756    0.8189    0.7829 H         1 <0>         0.0756
     45 H2          1.6008    1.3949   -0.5905 H         1 <0>         0.0616
     46 H3          0.9554    1.4998    1.0650 H         1 <0>         0.1038
     47 H4          1.4441   -0.6171   -1.8387 H         1 <0>         0.1385
     48 H5          0.4627   -2.8572   -2.0895 H         1 <0>         0.1342
     49 H6         -0.6351   -2.8553    2.0420 H         1 <0>         0.1374
     50 H7         -0.5281   -1.9396    3.6346 H         1 <0>         0.4127
     51 H8         -0.3835    1.5458    4.2641 H         1 <0>         0.1827
     52 H9          0.2512   -2.2876    6.0706 H         1 <0>         0.1701
     53 H10        -0.0707    2.2505    8.7491 H         1 <0>         0.4219
     54 H11         1.8088   -0.7254    8.7176 H         1 <0>         0.1301
     55 H12         2.3896   -2.0666   10.6973 H         1 <0>         0.1237
     56 H13        -0.2640    0.2962   13.0763 H         1 <0>         0.1254
     57 H14        -0.8382    1.6428   11.0983 H         1 <0>         0.1237
     58 H15         1.4166   -1.0979   15.1435 H         1 <0>         0.0693
     59 H16        -0.1199   -0.8670   14.2680 H         1 <0>         0.0861
     60 H17        -0.1836   -2.7799   15.9183 H         1 <0>         0.0854
     61 H18        -0.5235   -3.2777   14.2430 H         1 <0>         0.0384
     62 H19         2.7220   -4.8072   13.6927 H         1 <0>         0.0855
     63 H20         1.1372   -4.4365   12.9709 H         1 <0>         0.0381
     64 H21         2.7848   -2.9056   12.0350 H         1 <0>         0.0867
     65 H22         3.3369   -2.4456   13.6672 H         1 <0>         0.0691
     66 H23         0.1669   -5.5522   15.0409 H         1 <0>         0.0256
     67 H24         1.8317   -5.7698   15.6319 H         1 <0>         0.0701
     68 H25         0.6411   -4.8973   16.6266 H         1 <0>         0.0705
     69 H26        -0.3012   -4.9091   -0.7966 H         1 <0>         0.4128
     70 H27        -0.7972   -6.6798   -0.9033 H         1 <0>         0.1375
     71 H28        -1.6739   -8.9751   -1.0110 H         1 <0>         0.1468
     72 H29        -3.6836   -9.5907    0.2677 H         1 <0>         0.1476
     73 H30        -3.9614   -5.6183    1.7905 H         1 <0>         0.1501
@<TRIPOS>BOND
     1    1    2 1
     2    1   44 1
     3    1   45 1
     4    1   46 1
     5    2    7 ar
     6    2    3 ar
     7    3    4 ar
     8    3   47 1
     9    4    5 ar
    10    4   48 1
    11    5    6 ar
    12    5   31 1
    13    6    7 ar
    14    6   49 1
    15    7    8 1
    16    8    9 2
    17    8   10 am
    18   10   11 1
    19   10   50 1
    20   11   16 ar
    21   11   12 ar
    22   12   13 ar
    23   12   51 1
    24   13   14 ar
    25   14   15 ar
    26   14   17 1
    27   15   16 ar
    28   16   52 1
    29   17   18 1
    30   17   53 1
    31   18   23 ar
    32   18   19 ar
    33   19   20 ar
    34   19   54 1
    35   20   21 ar
    36   20   55 1
    37   21   22 ar
    38   21   24 1
    39   22   23 ar
    40   22   56 1
    41   23   57 1
    42   24   29 1
    43   24   25 1
    44   25   26 1
    45   25   58 1
    46   25   59 1
    47   26   27 1
    48   26   60 1
    49   26   61 1
    50   27   28 1
    51   27   30 1
    52   28   29 1
    53   28   62 1
    54   28   63 1
    55   29   64 1
    56   29   65 1
    57   30   66 1
    58   30   67 1
    59   30   68 1
    60   31   32 am
    61   31   69 1
    62   32   33 2
    63   32   34 1
    64   34   39 ar
    65   34   35 ar
    66   35   36 ar
    67   35   70 1
    68   36   37 ar
    69   36   71 1
    70   37   38 ar
    71   37   72 1
    72   38   39 ar
    73   38   40 1
    74   39   73 1
    75   40   41 1
    76   40   42 1
    77   40   43 1
@<TRIPOS>MOLECULE
CHEMBL106654
   56    60     0     0     0
SMALL
USER_CHARGES

@<TRIPOS>ATOM
      1 C1          2.5227   -1.2129    1.7687 C.3       1 <0>        -0.1115
      2 C2          1.3232   -1.3318    0.8641 C.ar      1 <0>        -0.0580
      3 C3          1.4155   -2.0431   -0.3166 C.ar      1 <0>        -0.1125
      4 C4          0.3158   -2.1534   -1.1472 C.ar      1 <0>        -0.0958
      5 C5         -0.8806   -1.5525   -0.7998 C.ar      1 <0>        -0.1143
      6 C6         -0.9801   -0.8395    0.3796 C.ar      1 <0>        -0.0199
      7 C7          0.1227   -0.7313    1.2193 C.ar      1 <0>         0.1570
      8 N1          0.0246   -0.0151    2.4162 N.pl3     1 <0>        -0.6534
      9 C8         -0.3655   -0.6584    3.5772 C.2       1 <0>         0.4815
     10 C9         -0.4752    0.0900    4.8274 C.2       1 <0>        -0.0686
     11 C10        -0.2702    1.4001    5.1834 C.2       1 <0>         0.0355
     12 N2         -0.5305    1.5067    6.4888 N.2       1 <0>        -0.4683
     13 C11        -0.8857    0.3402    6.9672 C.2       1 <0>         0.1965
     14 N3         -0.8670   -0.5697    5.9778 N.pl3     1 <0>        -0.3653
     15 C12        -1.1450   -1.9298    5.9085 C.ar      1 <0>         0.1053
     16 C13        -1.5410   -2.6214    7.0437 C.ar      1 <0>        -0.1951
     17 C14        -1.8172   -3.9777    6.9680 C.ar      1 <0>         0.2299
     18 C15        -1.6985   -4.6499    5.7541 C.ar      1 <0>        -0.1687
     19 C16        -1.3067   -3.9751    4.6212 C.ar      1 <0>        -0.0366
     20 C17        -1.0244   -2.6047    4.6830 C.ar      1 <0>         0.0922
     21 N4         -0.6436   -1.9434    3.5569 N.2       1 <0>        -0.5320
     22 N5         -2.2157   -4.6728    8.1134 N.pl3     1 <0>        -0.7432
     23 C18        -2.5081   -6.1062    8.0357 C.3       1 <0>         0.1268
     24 C19        -2.9185   -6.6186    9.4178 C.3       1 <0>         0.0447
     25 N6         -3.2117   -8.0559    9.3399 N.3       1 <0>        -0.5332
     26 C20        -4.4016   -8.3068    8.5137 C.3       1 <0>         0.0116
     27 C21        -4.6355   -9.8163    8.4105 C.3       1 <0>         0.0626
     28 O1         -4.7637  -10.3647    9.7251 O.3       1 <0>        -0.3845
     29 C22        -3.6223  -10.1393   10.5568 C.3       1 <0>         0.0628
     30 C23        -3.3781   -8.6331   10.6817 C.3       1 <0>         0.0182
     31 Cl1        -2.4818   -0.0853    0.8153 Cl        1 <0>        -0.0598
     32 H1          2.5277   -2.0420    2.4763 H         1 <0>         0.0739
     33 H2          3.4333   -1.2405    1.1702 H         1 <0>         0.0710
     34 H3          2.4746   -0.2702    2.3138 H         1 <0>         0.0673
     35 H4          2.3481   -2.5134   -0.5914 H         1 <0>         0.1324
     36 H5          0.3911   -2.7099   -2.0698 H         1 <0>         0.1346
     37 H6         -1.7376   -1.6403   -1.4511 H         1 <0>         0.1357
     38 H7          0.2300    0.9327    2.4325 H         1 <0>         0.4210
     39 H8          0.0441    2.1985    4.5276 H         1 <0>         0.1840
     40 H9         -1.1520    0.1408    7.9947 H         1 <0>         0.2135
     41 H10        -1.6337   -2.1033    7.9868 H         1 <0>         0.1287
     42 H11        -1.9149   -5.7067    5.7020 H         1 <0>         0.1338
     43 H12        -1.2163   -4.5027    3.6832 H         1 <0>         0.1415
     44 H13        -2.2985   -4.2060    8.9597 H         1 <0>         0.4008
     45 H14        -3.3218   -6.2733    7.3300 H         1 <0>         0.0628
     46 H15        -1.6197   -6.6406    7.6992 H         1 <0>         0.0733
     47 H16        -2.1048   -6.4515   10.1235 H         1 <0>         0.0840
     48 H17        -3.8069   -6.0842    9.7544 H         1 <0>         0.0432
     49 H18        -5.2699   -7.8345    8.9731 H         1 <0>         0.0458
     50 H19        -4.2464   -7.8936    7.5171 H         1 <0>         0.0899
     51 H20        -5.5489  -10.0053    7.8466 H         1 <0>         0.1003
     52 H21        -3.7906  -10.2816    7.9027 H         1 <0>         0.0620
     53 H22        -3.8029  -10.5620   11.5451 H         1 <0>         0.1006
     54 H23        -2.7480  -10.6140   10.1114 H         1 <0>         0.0619
     55 H24        -2.4758   -8.4580   11.2677 H         1 <0>         0.0887
     56 H25        -4.2301   -8.1660   11.1758 H         1 <0>         0.0455
@<TRIPOS>BOND
     1    1    2 1
     2    1   32 1
     3    1   33 1
     4    1   34 1
     5    2    7 ar
     6    2    3 ar
     7    3    4 ar
     8    3   35 1
     9    4    5 ar
    10    4   36 1
    11    5    6 ar
    12    5   37 1
    13    6    7 ar
    14    6   31 1
    15    7    8 1
    16    8    9 1
    17    8   38 1
    18    9   21 2
    19    9   10 1
    20   10   14 1
    21   10   11 2
    22   11   12 1
    23   11   39 1
    24   12   13 2
    25   13   14 1
    26   13   40 1
    27   14   15 1
    28   15   20 ar
    29   15   16 ar
    30   16   17 ar
    31   16   41 1
    32   17   18 ar
    33   17   22 1
    34   18   19 ar
    35   18   42 1
    36   19   20 ar
    37   19   43 1
    38   20   21 1
    39   22   23 1
    40   22   44 1
    41   23   24 1
    42   23   45 1
    43   23   46 1
    44   24   25 1
    45   24   47 1
    46   24   48 1
    47   25   30 1
    48   25   26 1
    49   26   27 1
    50   26   49 1
    51   26   50 1
    52   27   28 1
    53   27   51 1
    54   27   52 1
    55   28   29 1
    56   29   30 1
    57   29   53 1
    58   29   54 1
    59   30   55 1
    60   30   56 1
@<TRIPOS>MOLECULE
CHEMBL106654__1
   57    61     0     0     0
SMALL
USER_CHARGES

@<TRIPOS>ATOM
      1 C1          2.5227   -1.2129    1.7687 C.3       1 <0>        -0.1122
      2 C2          1.3232   -1.3318    0.8641 C.ar      1 <0>        -0.0568
      3 C3          1.4155   -2.0431   -0.3166 C.ar      1 <0>        -0.1115
      4 C4          0.3158   -2.1534   -1.1472 C.ar      1 <0>        -0.0927
      5 C5         -0.8806   -1.5525   -0.7998 C.ar      1 <0>        -0.1132
      6 C6         -0.9801   -0.8395    0.3796 C.ar      1 <0>        -0.0192
      7 C7          0.1227   -0.7313    1.2193 C.ar      1 <0>         0.1496
      8 N1          0.0246   -0.0151    2.4162 N.pl3     1 <0>        -0.6461
      9 C8         -0.3655   -0.6584    3.5772 C.2       1 <0>         0.4993
     10 C9         -0.4752    0.0900    4.8274 C.2       1 <0>        -0.0754
     11 C10        -0.2702    1.4001    5.1834 C.2       1 <0>         0.0481
     12 N2         -0.5305    1.5067    6.4888 N.2       1 <0>        -0.4640
     13 C11        -0.8857    0.3402    6.9672 C.2       1 <0>         0.2018
     14 N3         -0.8670   -0.5697    5.9778 N.pl3     1 <0>        -0.3704
     15 C12        -1.1450   -1.9298    5.9085 C.ar      1 <0>         0.1006
     16 C13        -1.5410   -2.6214    7.0437 C.ar      1 <0>        -0.1749
     17 C14        -1.8172   -3.9777    6.9680 C.ar      1 <0>         0.2046
     18 C15        -1.6985   -4.6499    5.7541 C.ar      1 <0>        -0.1671
     19 C16        -1.3067   -3.9751    4.6212 C.ar      1 <0>        -0.0417
     20 C17        -1.0244   -2.6047    4.6830 C.ar      1 <0>         0.1155
     21 N4         -0.6436   -1.9434    3.5569 N.2       1 <0>        -0.5441
     22 N5         -2.2157   -4.6728    8.1134 N.pl3     1 <0>        -0.7464
     23 C18        -2.5081   -6.1062    8.0357 C.3       1 <0>         0.1055
     24 C19        -2.9185   -6.6186    9.4178 C.3       1 <0>        -0.0207
     25 N6         -3.2117   -8.0559    9.3399 N.4       1 <0>        -0.3815
     26 C20        -4.3856   -8.2707    8.4825 C.3       1 <0>        -0.0508
     27 C21        -4.6889   -9.7689    8.4028 C.3       1 <0>         0.0364
     28 O1         -4.9021  -10.2777    9.7225 O.3       1 <0>        -0.3555
     29 C22        -3.7943  -10.0707   10.6032 C.3       1 <0>         0.0358
     30 C23        -3.4893   -8.5730   10.6870 C.3       1 <0>        -0.0427
     31 Cl1        -2.4818   -0.0853    0.8153 Cl        1 <0>        -0.0590
     32 H1          2.5277   -2.0420    2.4763 H         1 <0>         0.0726
     33 H2          3.4333   -1.2405    1.1702 H         1 <0>         0.0735
     34 H3          2.4746   -0.2702    2.3138 H         1 <0>         0.0672
     35 H4          2.3481   -2.5134   -0.5914 H         1 <0>         0.1341
     36 H5          0.3911   -2.7099   -2.0698 H         1 <0>         0.1367
     37 H6         -1.7376   -1.6403   -1.4511 H         1 <0>         0.1375
     38 H7          0.2300    0.9327    2.4325 H         1 <0>         0.4237
     39 H8          0.0441    2.1985    4.5276 H         1 <0>         0.1878
     40 H9         -1.1520    0.1408    7.9947 H         1 <0>         0.2150
     41 H10        -1.6337   -2.1033    7.9868 H         1 <0>         0.1314
     42 H11        -1.9149   -5.7067    5.7020 H         1 <0>         0.1277
     43 H12        -1.2163   -4.5027    3.6832 H         1 <0>         0.1444
     44 H13        -2.2985   -4.2060    8.9597 H         1 <0>         0.4070
     45 H14        -3.3218   -6.2733    7.3300 H         1 <0>         0.0808
     46 H15        -1.6197   -6.6406    7.6992 H         1 <0>         0.0815
     47 H16        -2.1048   -6.4515   10.1235 H         1 <0>         0.1402
     48 H17        -3.8069   -6.0842    9.7544 H         1 <0>         0.1382
     49 H18        -5.2442   -7.7478    8.9038 H         1 <0>         0.1416
     50 H19        -4.1807   -7.8875    7.4829 H         1 <0>         0.1445
     51 H20        -5.5847   -9.9275    7.8024 H         1 <0>         0.1436
     52 H21        -3.8464  -10.2870    7.9446 H         1 <0>         0.0829
     53 H22        -4.0426  -10.4476   11.5953 H         1 <0>         0.1437
     54 H23        -2.9212  -10.5991   10.2204 H         1 <0>         0.0827
     55 H24        -2.6190   -8.4142   11.3239 H         1 <0>         0.1444
     56 H25        -4.3482   -8.0500   11.1075 H         1 <0>         0.1406
     57 H26        -2.4172   -8.5408    8.9505 H         1 <0>         0.4255
@<TRIPOS>BOND
     1    1    2 1
     2    1   32 1
     3    1   33 1
     4    1   34 1
     5    2    7 ar
     6    2    3 ar
     7    3    4 ar
     8    3   35 1
     9    4    5 ar
    10    4   36 1
    11    5    6 ar
    12    5   37 1
    13    6    7 ar
    14    6   31 1
    15    7    8 1
    16    8    9 1
    17    8   38 1
    18    9   21 2
    19    9   10 1
    20   10   14 1
    21   10   11 2
    22   11   12 1
    23   11   39 1
    24   12   13 2
    25   13   14 1
    26   13   40 1
    27   14   15 1
    28   15   20 ar
    29   15   16 ar
    30   16   17 ar
    31   16   41 1
    32   17   18 ar
    33   17   22 1
    34   18   19 ar
    35   18   42 1
    36   19   20 ar
    37   19   43 1
    38   20   21 1
    39   22   23 1
    40   22   44 1
    41   23   24 1
    42   23   45 1
    43   23   46 1
    44   24   25 1
    45   24   47 1
    46   24   48 1
    47   25   30 1
    48   25   26 1
    49   25   57 1
    50   26   27 1
    51   26   49 1
    52   26   50 1
    53   27   28 1
    54   27   51 1
    55   27   52 1
    56   28   29 1
    57   29   30 1
    58   29   53 1
    59   29   54 1
    60   30   55 1
    61   30   56 1
@<TRIPOS>MOLECULE
CHEMBL304300
   56    59     0     0     0
SMALL
USER_CHARGES

@<TRIPOS>ATOM
      1 C1          2.7735   -0.1611   -1.0449 C.3       1 <0>        -0.1449
      2 C2          2.0219   -1.3998   -1.5366 C.3       1 <0>        -0.1297
      3 C3          1.0792   -1.0057   -2.6754 C.3       1 <0>         0.2062
      4 C4          0.2505   -2.1986   -3.0771 C.ar      1 <0>        -0.0956
      5 C5          0.7904   -3.1699   -3.8993 C.ar      1 <0>        -0.1150
      6 C6          0.0304   -4.2641   -4.2678 C.ar      1 <0>        -0.1154
      7 C7         -1.2694   -4.3874   -3.8137 C.ar      1 <0>        -0.1164
      8 C8         -1.8090   -3.4165   -2.9908 C.ar      1 <0>        -0.1141
      9 C9         -1.0475   -2.3244   -2.6188 C.ar      1 <0>        -0.1049
     10 N1          1.8651   -0.5480   -3.8238 N.am      1 <0>        -0.7283
     11 C10         2.2747    0.7342   -3.8921 C.2       1 <0>         0.6994
     12 O1          1.9919    1.5110   -3.0007 O.2       1 <0>        -0.5118
     13 N2          2.9978    1.1553   -4.9487 N.am      1 <0>        -0.6244
     14 C11         3.4182    2.4714   -5.0188 C.2       1 <0>         0.4032
     15 N3          3.2191    3.4473   -4.1611 N.2       1 <0>        -0.5118
     16 C12         3.6905    4.6939   -4.3579 C.ar      1 <0>         0.1425
     17 C13         3.5442    5.8243   -3.5157 C.ar      1 <0>        -0.0734
     18 C14         4.0805    7.0225   -3.8538 C.ar      1 <0>        -0.0700
     19 C15         4.7990    7.1926   -5.0457 C.ar      1 <0>        -0.1308
     20 C16         4.9629    6.0978   -5.9010 C.ar      1 <0>         0.0141
     21 C17         4.4202    4.8908   -5.5559 C.ar      1 <0>        -0.1700
     22 S1          4.3770    3.2755   -6.2949 S.3       1 <0>         0.0286
     23 C18         5.3729    8.5059   -5.3927 C.2       1 <0>         0.5737
     24 O2          5.9946    8.6433   -6.4289 O.2       1 <0>        -0.5139
     25 N4          5.2085    9.5540   -4.5615 N.am      1 <0>        -0.6793
     26 C19         5.8405   10.7713   -4.8372 C.ar      1 <0>         0.1399
     27 C20         5.1673   11.7612   -5.5412 C.ar      1 <0>        -0.0616
     28 C21         5.7939   12.9618   -5.8119 C.ar      1 <0>        -0.1113
     29 C22         7.0905   13.1796   -5.3829 C.ar      1 <0>        -0.0953
     30 C23         7.7645   12.1966   -4.6821 C.ar      1 <0>        -0.1125
     31 C24         7.1413   10.9950   -4.4024 C.ar      1 <0>        -0.0237
     32 Cl1         7.9852    9.7639   -3.5157 Cl        1 <0>        -0.0576
     33 C25         3.7546   11.5252   -6.0098 C.3       1 <0>        -0.1146
     34 H1          3.3523    0.2623   -1.8658 H         1 <0>         0.0546
     35 H2          2.0584    0.5787   -0.6851 H         1 <0>         0.0625
     36 H3          3.4451   -0.4418   -0.2337 H         1 <0>         0.0484
     37 H4          2.7370   -2.1396   -1.8965 H         1 <0>         0.0655
     38 H5          1.4431   -1.8232   -0.7158 H         1 <0>         0.0761
     39 H6          0.4220   -0.2027   -2.3416 H         1 <0>         0.1019
     40 H7          1.8060   -3.0736   -4.2541 H         1 <0>         0.1197
     41 H8          0.4519   -5.0226   -4.9107 H         1 <0>         0.1246
     42 H9         -1.8635   -5.2419   -4.1022 H         1 <0>         0.1241
     43 H10        -2.8247   -3.5126   -2.6363 H         1 <0>         0.1259
     44 H11        -1.4679   -1.5678   -1.9728 H         1 <0>         0.1261
     45 H12         2.0908   -1.1678   -4.5351 H         1 <0>         0.3983
     46 H13         3.2235    0.5355   -5.6599 H         1 <0>         0.4263
     47 H14         2.9964    5.7297   -2.5897 H         1 <0>         0.1422
     48 H15         3.9511    7.8649   -3.1906 H         1 <0>         0.1360
     49 H16         5.5128    6.2046   -6.8244 H         1 <0>         0.1479
     50 H17         4.6520    9.4643   -3.7721 H         1 <0>         0.4104
     51 H18         5.2707   13.7316   -6.3597 H         1 <0>         0.1346
     52 H19         7.5778   14.1195   -5.5961 H         1 <0>         0.1367
     53 H20         8.7772   12.3695   -4.3491 H         1 <0>         0.1381
     54 H21         3.0567   11.8535   -5.2395 H         1 <0>         0.0766
     55 H22         3.5766   12.0890   -6.9255 H         1 <0>         0.0735
     56 H23         3.6086   10.4625   -6.2032 H         1 <0>         0.0682
@<TRIPOS>BOND
     1    1    2 1
     2    1   34 1
     3    1   35 1
     4    1   36 1
     5    2    3 1
     6    2   37 1
     7    2   38 1
     8    3    4 1
     9    3   10 1
    10    3   39 1
    11    4    9 ar
    12    4    5 ar
    13    5    6 ar
    14    5   40 1
    15    6    7 ar
    16    6   41 1
    17    7    8 ar
    18    7   42 1
    19    8    9 ar
    20    8   43 1
    21    9   44 1
    22   10   11 am
    23   10   45 1
    24   11   12 2
    25   11   13 am
    26   13   14 1
    27   13   46 1
    28   14   22 1
    29   14   15 2
    30   15   16 1
    31   16   21 ar
    32   16   17 ar
    33   17   18 ar
    34   17   47 1
    35   18   19 ar
    36   18   48 1
    37   19   20 ar
    38   19   23 1
    39   20   21 ar
    40   20   49 1
    41   21   22 1
    42   23   24 2
    43   23   25 am
    44   25   26 1
    45   25   50 1
    46   26   31 ar
    47   26   27 ar
    48   27   28 ar
    49   27   33 1
    50   28   29 ar
    51   28   51 1
    52   29   30 ar
    53   29   52 1
    54   30   31 ar
    55   30   53 1
    56   31   32 1
    57   33   54 1
    58   33   55 1
    59   33   56 1
@<TRIPOS>MOLECULE
CHEMBL304300__1
   56    59     0     0     0
SMALL
USER_CHARGES

@<TRIPOS>ATOM
      1 C1          1.5156    1.5093    0.0636 C.3       1 <0>        -0.1448
      2 C2          0.6193    0.3706    0.5543 C.3       1 <0>        -0.1296
      3 C3         -0.4783    0.1045   -0.4778 C.3       1 <0>         0.2062
      4 C4         -1.2859   -1.0953   -0.0543 C.ar      1 <0>        -0.0956
      5 C5         -2.2740   -0.9605    0.9029 C.ar      1 <0>        -0.1151
      6 C6         -3.0148   -2.0611    1.2914 C.ar      1 <0>        -0.1153
      7 C7         -2.7677   -3.2963    0.7222 C.ar      1 <0>        -0.1164
      8 C8         -1.7802   -3.4310   -0.2357 C.ar      1 <0>        -0.1140
      9 C9         -1.0424   -2.3295   -0.6273 C.ar      1 <0>        -0.1050
     10 N1         -1.3547    1.2748   -0.5713 N.am      1 <0>        -0.7284
     11 C10        -1.0237    2.3018   -1.3789 C.2       1 <0>         0.6994
     12 O1          0.0021    2.2570   -2.0297 O.2       1 <0>        -0.5118
     13 N2         -1.8299    3.3783   -1.4649 N.am      1 <0>        -0.6244
     14 C11        -1.4902    4.4325   -2.2938 C.2       1 <0>         0.4031
     15 N3         -0.4382    4.5644   -3.0709 N.2       1 <0>        -0.5118
     16 C12        -0.2311    5.6560   -3.8327 C.ar      1 <0>         0.1425
     17 C13         0.8547    5.9167   -4.7054 C.ar      1 <0>        -0.0734
     18 C14         0.9232    7.0723   -5.4107 C.ar      1 <0>        -0.0700
     19 C15        -0.0730    8.0535   -5.3066 C.ar      1 <0>        -0.1308
     20 C16        -1.1594    7.8292   -4.4544 C.ar      1 <0>         0.0141
     21 C17        -1.2244    6.6619   -3.7447 C.ar      1 <0>        -0.1700
     22 S1         -2.3737    5.9583   -2.5866 S.3       1 <0>         0.0288
     23 C18         0.0233    9.3032   -6.0835 C.2       1 <0>         0.5738
     24 O2         -0.8459   10.1481   -5.9863 O.2       1 <0>        -0.5139
     25 N4          1.0747    9.5090   -6.9013 N.am      1 <0>        -0.6794
     26 C19         1.1146   10.6448   -7.7171 C.ar      1 <0>         0.1399
     27 C20         1.7644   11.7922   -7.2814 C.ar      1 <0>        -0.0616
     28 C21         1.8019   12.9119   -8.0890 C.ar      1 <0>        -0.1113
     29 C22         1.1935   12.8920   -9.3308 C.ar      1 <0>        -0.0953
     30 C23         0.5450   11.7519   -9.7683 C.ar      1 <0>        -0.1125
     31 C24         0.5089   10.6257   -8.9677 C.ar      1 <0>        -0.0238
     32 Cl1        -0.2987    9.1918   -9.5206 Cl        1 <0>        -0.0575
     33 C25         2.4275   11.8156   -5.9283 C.3       1 <0>        -0.1145
     34 H1          1.9705    1.2299   -0.8867 H         1 <0>         0.0625
     35 H2          0.9173    2.4104   -0.0709 H         1 <0>         0.0546
     36 H3          2.2976    1.6988    0.7989 H         1 <0>         0.0484
     37 H4          1.2177   -0.5305    0.6889 H         1 <0>         0.0761
     38 H5          0.1645    0.6499    1.5047 H         1 <0>         0.0655
     39 H6         -0.0241   -0.0879   -1.4498 H         1 <0>         0.1020
     40 H7         -2.4670    0.0046    1.3476 H         1 <0>         0.1197
     41 H8         -3.7863   -1.9559    2.0398 H         1 <0>         0.1246
     42 H9         -3.3460   -4.1563    1.0262 H         1 <0>         0.1241
     43 H10        -1.5870   -4.3961   -0.6801 H         1 <0>         0.1259
     44 H11        -0.2734   -2.4340   -1.3783 H         1 <0>         0.1261
     45 H12        -2.1732    1.3104   -0.0520 H         1 <0>         0.3983
     46 H13        -2.6484    3.4140   -0.9456 H         1 <0>         0.4263
     47 H14         1.6404    5.1831   -4.8100 H         1 <0>         0.1422
     48 H15         1.7640    7.2412   -6.0672 H         1 <0>         0.1360
     49 H16        -1.9391    8.5703   -4.3580 H         1 <0>         0.1479
     50 H17         1.8037    8.8695   -6.9242 H         1 <0>         0.4104
     51 H18         2.3069   13.8044   -7.7502 H         1 <0>         0.1346
     52 H19         1.2245   13.7692   -9.9600 H         1 <0>         0.1367
     53 H20         0.0702   11.7399  -10.7382 H         1 <0>         0.1381
     54 H21         3.4621   11.4864   -6.0250 H         1 <0>         0.0766
     55 H22         2.4046   12.8300   -5.5300 H         1 <0>         0.0735
     56 H23         1.8953   11.1473   -5.2513 H         1 <0>         0.0682
@<TRIPOS>BOND
     1    1    2 1
     2    1   34 1
     3    1   35 1
     4    1   36 1
     5    2    3 1
     6    2   37 1
     7    2   38 1
     8    3    4 1
     9    3   10 1
    10    3   39 1
    11    4    9 ar
    12    4    5 ar
    13    5    6 ar
    14    5   40 1
    15    6    7 ar
    16    6   41 1
    17    7    8 ar
    18    7   42 1
    19    8    9 ar
    20    8   43 1
    21    9   44 1
    22   10   11 am
    23   10   45 1
    24   11   12 2
    25   11   13 am
    26   13   14 1
    27   13   46 1
    28   14   22 1
    29   14   15 2
    30   15   16 1
    31   16   21 ar
    32   16   17 ar
    33   17   18 ar
    34   17   47 1
    35   18   19 ar
    36   18   48 1
    37   19   20 ar
    38   19   23 1
    39   20   21 ar
    40   20   49 1
    41   21   22 1
    42   23   24 2
    43   23   25 am
    44   25   26 1
    45   25   50 1
    46   26   31 ar
    47   26   27 ar
    48   27   28 ar
    49   27   33 1
    50   28   29 ar
    51   28   51 1
    52   29   30 ar
    53   29   52 1
    54   30   31 ar
    55   30   53 1
    56   31   32 1
    57   33   54 1
    58   33   55 1
    59   33   56 1
@<TRIPOS>MOLECULE
CHEMBL302140
   47    50     0     0     0
SMALL
USER_CHARGES

@<TRIPOS>ATOM
      1 C1         -2.3215    0.0989    0.8112 C.3       1 <0>        -0.1148
      2 C2         -1.1015   -0.6767    0.3857 C.ar      1 <0>        -0.0627
      3 C3         -1.0985   -1.3553   -0.8177 C.ar      1 <0>        -0.1116
      4 C4          0.0202   -2.0668   -1.2095 C.ar      1 <0>        -0.0949
      5 C5          1.1403   -2.1021   -0.3989 C.ar      1 <0>        -0.1132
      6 C6          1.1442   -1.4256    0.8060 C.ar      1 <0>        -0.0213
      7 C7          0.0226   -0.7051    1.2000 C.ar      1 <0>         0.1391
      8 N1          0.0246   -0.0145    2.4167 N.am      1 <0>        -0.6793
      9 C8         -0.3554   -0.6412    3.5478 C.2       1 <0>         0.5730
     10 O1         -0.6123   -1.8297    3.5276 O.2       1 <0>        -0.5129
     11 C9         -0.4597    0.1144    4.8099 C.ar      1 <0>        -0.1302
     12 C10        -0.1717    1.4861    4.8439 C.ar      1 <0>        -0.0704
     13 C11        -0.2611    2.1998    5.9929 C.ar      1 <0>        -0.0727
     14 C12        -0.6513    1.5834    7.2081 C.ar      1 <0>         0.1415
     15 C13        -0.9374    0.1974    7.1480 C.ar      1 <0>        -0.1697
     16 C14        -0.8532   -0.5255    5.9900 C.ar      1 <0>         0.0140
     17 S1         -1.3727   -0.1723    8.8306 S.3       1 <0>         0.0326
     18 C15        -1.1555    1.4767    9.4851 C.2       1 <0>         0.4013
     19 N2         -0.7847    2.1538    8.4212 N.2       1 <0>        -0.5127
     20 N3         -1.3333    1.9262   10.7813 N.am      1 <0>        -0.6224
     21 C16        -1.1170    3.2223   11.0807 C.2       1 <0>         0.7020
     22 O2         -0.7657    3.9965   10.2117 O.2       1 <0>        -0.5176
     23 N4         -1.2902    3.6602   12.3435 N.am      1 <0>        -0.7334
     24 C17        -1.0551    5.0691   12.6690 C.3       1 <0>         0.2234
     25 C18        -1.3169    5.2964   14.1355 C.2       1 <0>        -0.0471
     26 C19        -0.4080    5.1948   15.1219 C.2       1 <0>        -0.1754
     27 C20        -1.0802    5.4891   16.3303 C.2       1 <0>        -0.2191
     28 C21        -2.3598    5.7529   16.0102 C.2       1 <0>        -0.0224
     29 O3         -2.4960    5.6403   14.6788 O.3       1 <0>        -0.1708
     30 Cl1         2.5501   -1.4706    1.8235 Cl        1 <0>        -0.0571
     31 H1         -2.2505    1.1209    0.4389 H         1 <0>         0.0772
     32 H2         -3.2141   -0.3753    0.4031 H         1 <0>         0.0736
     33 H3         -2.3824    0.1121    1.8994 H         1 <0>         0.0676
     34 H4         -1.9715   -1.3302   -1.4530 H         1 <0>         0.1346
     35 H5          0.0194   -2.5966   -2.1506 H         1 <0>         0.1367
     36 H6          2.0125   -2.6591   -0.7078 H         1 <0>         0.1380
     37 H7          0.2995    0.9152    2.4462 H         1 <0>         0.4105
     38 H8          0.1285    1.9853    3.9344 H         1 <0>         0.1364
     39 H9         -0.0310    3.2549    5.9823 H         1 <0>         0.1426
     40 H10        -1.0844   -1.5804    5.9875 H         1 <0>         0.1483
     41 H11        -1.6136    1.3085   11.4747 H         1 <0>         0.4281
     42 H12        -1.5705    3.0425   13.0369 H         1 <0>         0.4034
     43 H13        -0.0211    5.3273   12.4402 H         1 <0>         0.1047
     44 H14        -1.7248    5.6949   12.0791 H         1 <0>         0.0906
     45 H15         0.6351    4.9373   15.0119 H         1 <0>         0.1526
     46 H16        -0.6492    5.4997   17.3205 H         1 <0>         0.1526
     47 H17        -3.1437    6.0148   16.7054 H         1 <0>         0.2070
@<TRIPOS>BOND
     1    1    2 1
     2    1   31 1
     3    1   32 1
     4    1   33 1
     5    2    7 ar
     6    2    3 ar
     7    3    4 ar
     8    3   34 1
     9    4    5 ar
    10    4   35 1
    11    5    6 ar
    12    5   36 1
    13    6    7 ar
    14    6   30 1
    15    7    8 1
    16    8    9 am
    17    8   37 1
    18    9   10 2
    19    9   11 1
    20   11   16 ar
    21   11   12 ar
    22   12   13 ar
    23   12   38 1
    24   13   14 ar
    25   13   39 1
    26   14   19 1
    27   14   15 ar
    28   15   16 ar
    29   15   17 1
    30   16   40 1
    31   17   18 1
    32   18   19 2
    33   18   20 1
    34   20   21 am
    35   20   41 1
    36   21   22 2
    37   21   23 am
    38   23   24 1
    39   23   42 1
    40   24   25 1
    41   24   43 1
    42   24   44 1
    43   25   29 1
    44   25   26 2
    45   26   27 1
    46   26   45 1
    47   27   28 2
    48   27   46 1
    49   28   29 1
    50   28   47 1
@<TRIPOS>MOLECULE
CHEMBL302119
   44    47     0     0     0
SMALL
USER_CHARGES

@<TRIPOS>ATOM
      1 C1         -2.3215    0.0989    0.8112 C.3       1 <0>        -0.1148
      2 C2         -1.1015   -0.6767    0.3857 C.ar      1 <0>        -0.0627
      3 C3         -1.0985   -1.3553   -0.8177 C.ar      1 <0>        -0.1116
      4 C4          0.0202   -2.0668   -1.2095 C.ar      1 <0>        -0.0949
      5 C5          1.1403   -2.1021   -0.3989 C.ar      1 <0>        -0.1131
      6 C6          1.1442   -1.4256    0.8060 C.ar      1 <0>        -0.0213
      7 C7          0.0226   -0.7051    1.2000 C.ar      1 <0>         0.1390
      8 N1          0.0246   -0.0145    2.4167 N.am      1 <0>        -0.6793
      9 C8         -0.3554   -0.6412    3.5478 C.2       1 <0>         0.5731
     10 O1         -0.6123   -1.8297    3.5276 O.2       1 <0>        -0.5129
     11 C9         -0.4597    0.1144    4.8099 C.ar      1 <0>        -0.1302
     12 C10        -0.1717    1.4861    4.8439 C.ar      1 <0>        -0.0703
     13 C11        -0.2611    2.1998    5.9929 C.ar      1 <0>        -0.0728
     14 C12        -0.6513    1.5834    7.2081 C.ar      1 <0>         0.1415
     15 C13        -0.9374    0.1974    7.1480 C.ar      1 <0>        -0.1696
     16 C14        -0.8532   -0.5255    5.9900 C.ar      1 <0>         0.0140
     17 S1         -1.3727   -0.1723    8.8306 S.3       1 <0>         0.0322
     18 C15        -1.1555    1.4767    9.4851 C.2       1 <0>         0.4014
     19 N2         -0.7847    2.1538    8.4212 N.2       1 <0>        -0.5128
     20 N3         -1.3333    1.9262   10.7813 N.am      1 <0>        -0.6231
     21 C16        -1.1170    3.2223   11.0807 C.2       1 <0>         0.7029
     22 O2         -0.7657    3.9965   10.2117 O.2       1 <0>        -0.5174
     23 N4         -1.2902    3.6602   12.3435 N.am      1 <0>        -0.7062
     24 C17        -1.0551    5.0691   12.6690 C.3       1 <0>         0.0947
     25 C18        -0.2823    5.3782   13.9528 C.3       1 <0>        -0.1913
     26 C19        -1.7872    5.6455   13.8825 C.3       1 <0>        -0.1863
     27 Cl1         2.5501   -1.4706    1.8235 Cl        1 <0>        -0.0571
     28 H1         -2.2505    1.1209    0.4389 H         1 <0>         0.0772
     29 H2         -3.2141   -0.3753    0.4031 H         1 <0>         0.0736
     30 H3         -2.3824    0.1121    1.8994 H         1 <0>         0.0676
     31 H4         -1.9715   -1.3302   -1.4530 H         1 <0>         0.1346
     32 H5          0.0194   -2.5966   -2.1506 H         1 <0>         0.1367
     33 H6          2.0125   -2.6591   -0.7078 H         1 <0>         0.1381
     34 H7          0.2995    0.9152    2.4462 H         1 <0>         0.4106
     35 H8          0.1285    1.9853    3.9344 H         1 <0>         0.1365
     36 H9         -0.0310    3.2549    5.9823 H         1 <0>         0.1426
     37 H10        -1.0844   -1.5804    5.9875 H         1 <0>         0.1484
     38 H11        -1.6136    1.3085   11.4747 H         1 <0>         0.4275
     39 H12        -1.5705    3.0425   13.0369 H         1 <0>         0.4013
     40 H13        -0.8984    5.7289   11.8156 H         1 <0>         0.1430
     41 H14         0.0512    4.5333   14.5553 H         1 <0>         0.0986
     42 H15         0.3831    6.2415   13.9442 H         1 <0>         0.1061
     43 H16        -2.1117    6.6847   13.8277 H         1 <0>         0.1075
     44 H17        -2.4437    4.9765   14.4388 H         1 <0>         0.0991
@<TRIPOS>BOND
     1    1    2 1
     2    1   28 1
     3    1   29 1
     4    1   30 1
     5    2    7 ar
     6    2    3 ar
     7    3    4 ar
     8    3   31 1
     9    4    5 ar
    10    4   32 1
    11    5    6 ar
    12    5   33 1
    13    6    7 ar
    14    6   27 1
    15    7    8 1
    16    8    9 am
    17    8   34 1
    18    9   10 2
    19    9   11 1
    20   11   16 ar
    21   11   12 ar
    22   12   13 ar
    23   12   35 1
    24   13   14 ar
    25   13   36 1
    26   14   19 1
    27   14   15 ar
    28   15   16 ar
    29   15   17 1
    30   16   37 1
    31   17   18 1
    32   18   19 2
    33   18   20 1
    34   20   21 am
    35   20   38 1
    36   21   22 2
    37   21   23 am
    38   23   24 1
    39   23   39 1
    40   24   26 1
    41   24   25 1
    42   24   40 1
    43   25   26 1
    44   25   41 1
    45   25   42 1
    46   26   43 1
    47   26   44 1
@<TRIPOS>MOLECULE
CHEMBL258694
   46    50     0     0     0
SMALL
USER_CHARGES

@<TRIPOS>ATOM
      1 C1         -0.8808    1.2408   -0.5778 C.3       1 <0>        -0.0598
      2 C2         -0.7240   -0.2456   -0.3855 C.2       1 <0>         0.1634
      3 N1         -1.1343   -1.1744   -1.2021 N.2       1 <0>        -0.2861
      4 N2         -0.8339   -2.3308   -0.7246 N.2       1 <0>        -0.2685
      5 C3         -0.2161   -2.1780    0.4235 C.2       1 <0>         0.2493
      6 O1         -0.1302   -0.8533    0.6573 O.3       1 <0>        -0.2220
      7 C4          0.2951   -3.2572    1.2947 C.2       1 <0>        -0.1013
      8 C5          0.9403   -3.0955    2.5075 C.2       1 <0>         0.1125
      9 N3          1.2511   -4.3076    2.9969 N.pl3     1 <0>        -0.2273
     10 C6          0.8136   -5.2748    2.1112 C.2       1 <0>        -0.1061
     11 C7          0.2102   -4.6407    1.0467 C.2       1 <0>        -0.0182
     12 C8         -0.4176   -5.3010   -0.1537 C.3       1 <0>        -0.0218
     13 C9         -1.8935   -4.9068   -0.2390 C.3       1 <0>        -0.1576
     14 C10         0.3060   -4.8461   -1.4227 C.3       1 <0>        -0.1566
     15 C11         1.0393   -6.6357    2.4318 C.2       1 <0>         0.5355
     16 N4          1.6575   -6.9387    3.5610 N.2       1 <0>        -0.6162
     17 C12         2.0732   -5.9953    4.4042 C.2       1 <0>         0.3441
     18 N5          1.8975   -4.7241    4.1701 N.2       1 <0>        -0.3544
     19 N6          0.6186   -7.6339    1.5761 N.pl3     1 <0>        -0.6138
     20 C13         0.7330   -8.9770    1.9569 C.ar      1 <0>         0.0628
     21 C14         0.9829   -9.9572    1.0062 C.ar      1 <0>        -0.0510
     22 C15         1.0875  -11.2802    1.4408 C.ar      1 <0>        -0.1354
     23 C16         1.3356  -12.5585    0.7717 C.2       1 <0>        -0.1974
     24 C17         1.3234  -13.5055    1.7230 C.2       1 <0>         0.0683
     25 N7          1.0877  -12.9362    2.9454 N.pl3     1 <0>        -0.5813
     26 H1          1.0336  -13.4209    3.7838 H         1 <0>         0.4218
     27 C18         0.9384  -11.5748    2.8096 C.ar      1 <0>         0.2766
     28 N8          0.7006  -10.5987    3.6751 N.ar      1 <0>        -0.4797
     29 C19         0.6030   -9.3431    3.2940 C.ar      1 <0>         0.1620
     30 H2         -0.0183    1.6301   -1.1188 H         1 <0>         0.1002
     31 H3         -1.7878    1.4397   -1.1486 H         1 <0>         0.1084
     32 H4         -0.9496    1.7277    0.3950 H         1 <0>         0.0937
     33 H5          1.1585   -2.1505    2.9827 H         1 <0>         0.1927
     34 H6         -0.3357   -6.3837   -0.0571 H         1 <0>         0.0610
     35 H7         -1.9753   -3.8241   -0.3357 H         1 <0>         0.0907
     36 H8         -2.3475   -5.3844   -1.1072 H         1 <0>         0.0641
     37 H9         -2.4090   -5.2308    0.6650 H         1 <0>         0.0486
     38 H10         1.3574   -5.1270   -1.3619 H         1 <0>         0.0486
     39 H11        -0.1481   -5.3238   -2.2909 H         1 <0>         0.0647
     40 H12         0.2242   -3.7635   -1.5193 H         1 <0>         0.0886
     41 H13         2.5733   -6.2933    5.3138 H         1 <0>         0.2247
     42 H14         0.2438   -7.4053    0.7112 H         1 <0>         0.4245
     43 H15         1.0927   -9.7043   -0.0380 H         1 <0>         0.1399
     44 H16         1.4971  -12.7106   -0.2852 H         1 <0>         0.1531
     45 H17         1.4766  -14.5605    1.5495 H         1 <0>         0.1808
     46 H18         0.4131   -8.5800    4.0342 H         1 <0>         0.1738
@<TRIPOS>BOND
     1    1    2 1
     2    1   30 1
     3    1   31 1
     4    1   32 1
     5    2    6 1
     6    2    3 2
     7    3    4 1
     8    4    5 2
     9    5    6 1
    10    5    7 1
    11    7   11 1
    12    7    8 2
    13    8    9 1
    14    8   33 1
    15    9   18 1
    16    9   10 1
    17   10   11 2
    18   10   15 1
    19   11   12 1
    20   12   13 1
    21   12   14 1
    22   12   34 1
    23   13   35 1
    24   13   36 1
    25   13   37 1
    26   14   38 1
    27   14   39 1
    28   14   40 1
    29   15   16 2
    30   15   19 1
    31   16   17 1
    32   17   18 2
    33   17   41 1
    34   19   20 1
    35   19   42 1
    36   20   29 ar
    37   20   21 ar
    38   21   22 ar
    39   21   43 1
    40   22   27 ar
    41   22   23 1
    42   23   24 2
    43   23   44 1
    44   24   25 1
    45   24   45 1
    46   25   26 1
    47   25   27 1
    48   27   28 ar
    49   28   29 ar
    50   29   46 1
@<TRIPOS>MOLECULE
CHEMBL1083023
   55    59     0     0     0
SMALL
USER_CHARGES

@<TRIPOS>ATOM
      1 C1         -0.0383    1.4645   -0.0017 C.3       1 <0>        -0.0468
      2 N1         -0.0079   -0.0042   -0.0037 N.4       1 <0>        -0.3838
      3 C2         -1.3825   -0.5205   -0.0143 C.3       1 <0>        -0.0231
      4 C3         -1.3524   -2.0479   -0.1321 C.3       1 <0>         0.0995
      5 N2         -0.5114   -2.5826    0.9500 N.pl3     1 <0>        -0.6460
      6 C4          0.8284   -2.0045    1.1367 C.3       1 <0>         0.1000
      7 C5          0.6954   -0.4791    1.1946 C.3       1 <0>        -0.0228
      8 C6         -0.9724   -3.6107    1.7776 C.ar      1 <0>         0.1881
      9 C7         -2.2805   -4.0642    1.6572 C.ar      1 <0>        -0.1819
     10 C8         -2.7380   -5.0778    2.4726 C.ar      1 <0>        -0.0665
     11 C9         -1.8864   -5.6483    3.4185 C.ar      1 <0>        -0.0137
     12 C10        -0.5739   -5.1915    3.5369 C.ar      1 <0>        -0.0500
     13 C11        -0.1201   -4.1811    2.7154 C.ar      1 <0>        -0.1799
     14 C12        -2.3754   -6.7374    4.2965 C.2       1 <0>        -0.2226
     15 C13        -3.5574   -6.7317    5.0467 C.2       1 <0>         0.1205
     16 N3         -3.6519   -7.8659    5.6961 N.2       1 <0>        -0.3223
     17 N4         -2.5390   -8.6604    5.3998 N.pl3     1 <0>        -0.3441
     18 C14        -1.7445   -7.9659    4.5254 C.2       1 <0>         0.3189
     19 N5         -0.6040   -8.4916    4.0634 N.2       1 <0>        -0.5085
     20 C15        -0.2064   -9.6898    4.4267 C.2       1 <0>         0.2404
     21 C16        -0.9813  -10.4513    5.3187 C.2       1 <0>        -0.2589
     22 C17        -2.1651   -9.9116    5.8115 C.2       1 <0>         0.5068
     23 N6         -2.9514  -10.6264    6.6844 N.pl3     1 <0>        -0.8210
     24 C18        -0.5400  -11.8044    5.7340 C.ar      1 <0>        -0.0114
     25 C19        -0.2106  -12.0546    7.0658 C.ar      1 <0>        -0.1255
     26 C20         0.1999  -13.3150    7.4497 C.ar      1 <0>        -0.0957
     27 C21         0.2859  -14.3322    6.5171 C.ar      1 <0>        -0.1387
     28 C22        -0.0401  -14.0918    5.1895 C.ar      1 <0>         0.1135
     29 C23        -0.4587  -12.8313    4.7961 C.ar      1 <0>        -0.1280
     30 O1          0.0463  -15.0946    4.2764 O.3       1 <0>        -0.4972
     31 H1          0.9816    1.8490   -0.0019 H         1 <0>         0.1246
     32 H2         -0.5602    1.8183   -0.8908 H         1 <0>         0.1246
     33 H3         -0.5589    1.8159    0.8892 H         1 <0>         0.1213
     34 H4         -1.8843   -0.2370    0.9109 H         1 <0>         0.1321
     35 H5         -1.9217   -0.1010   -0.8636 H         1 <0>         0.1397
     36 H6         -2.3642   -2.4424   -0.0385 H         1 <0>         0.1269
     37 H7         -0.9329   -2.3327   -1.0969 H         1 <0>         0.0862
     38 H8          1.2585   -2.3703    2.0691 H         1 <0>         0.1266
     39 H9          1.4682   -2.2849    0.3000 H         1 <0>         0.0861
     40 H10         1.6874   -0.0291    1.2361 H         1 <0>         0.1399
     41 H11         0.1308   -0.1969    2.0832 H         1 <0>         0.1321
     42 H12        -2.9395   -3.6221    0.9246 H         1 <0>         0.1217
     43 H13        -3.7549   -5.4294    2.3790 H         1 <0>         0.1264
     44 H14         0.0875   -5.6312    4.2688 H         1 <0>         0.1253
     45 H15         0.8974   -3.8300    2.8036 H         1 <0>         0.1215
     46 H16        -4.2739   -5.9245    5.0844 H         1 <0>         0.1988
     47 H17         0.7182  -10.0910    4.0387 H         1 <0>         0.1794
     48 H18        -3.7799  -10.2450    7.0146 H         1 <0>         0.4189
     49 H19        -2.6775  -11.5120    6.9700 H         1 <0>         0.4263
     50 H20        -0.2764  -11.2620    7.7965 H         1 <0>         0.1255
     51 H21         0.4551  -13.5073    8.4813 H         1 <0>         0.1327
     52 H22         0.6080  -15.3167    6.8226 H         1 <0>         0.1330
     53 H23        -0.7169  -12.6439    3.7643 H         1 <0>         0.1320
     54 H24        -0.7672  -15.6079    4.1776 H         1 <0>         0.3946
     55 H25         0.4768   -0.3282   -0.8272 H         1 <0>         0.4245
@<TRIPOS>BOND
     1    1    2 1
     2    1   31 1
     3    1   32 1
     4    1   33 1
     5    2    7 1
     6    2    3 1
     7    2   55 1
     8    3    4 1
     9    3   34 1
    10    3   35 1
    11    4    5 1
    12    4   36 1
    13    4   37 1
    14    5    6 1
    15    5    8 1
    16    6    7 1
    17    6   38 1
    18    6   39 1
    19    7   40 1
    20    7   41 1
    21    8   13 ar
    22    8    9 ar
    23    9   10 ar
    24    9   42 1
    25   10   11 ar
    26   10   43 1
    27   11   12 ar
    28   11   14 1
    29   12   13 ar
    30   12   44 1
    31   13   45 1
    32   14   18 2
    33   14   15 1
    34   15   16 2
    35   15   46 1
    36   16   17 1
    37   17   22 1
    38   17   18 1
    39   18   19 1
    40   19   20 2
    41   20   21 1
    42   20   47 1
    43   21   22 2
    44   21   24 1
    45   22   23 1
    46   23   48 1
    47   23   49 1
    48   24   29 ar
    49   24   25 ar
    50   25   26 ar
    51   25   50 1
    52   26   27 ar
    53   26   51 1
    54   27   28 ar
    55   27   52 1
    56   28   29 ar
    57   28   30 1
    58   29   53 1
    59   30   54 1
@<TRIPOS>MOLECULE
CHEMBL1083023__1
   54    58     0     0     0
SMALL
USER_CHARGES

@<TRIPOS>ATOM
      1 C1         -0.0385    1.4645   -0.0027 C.3       1 <0>         0.0244
      2 N1         -0.0084   -0.0042   -0.0045 N.3       1 <0>        -0.5428
      3 C2         -1.3649   -0.5584   -0.1079 C.3       1 <0>         0.0385
      4 C3         -1.2800   -2.0777   -0.2888 C.3       1 <0>         0.1256
      5 N2         -0.4627   -2.6330    0.8007 N.pl3     1 <0>        -0.6323
      6 C4          0.8571   -2.0356    1.0546 C.3       1 <0>         0.1262
      7 C5          0.6880   -0.5179    1.1825 C.3       1 <0>         0.0388
      8 C6         -0.9279   -3.7006    1.5743 C.ar      1 <0>         0.2189
      9 C7         -2.2209   -4.1767    1.3931 C.ar      1 <0>        -0.1988
     10 C8         -2.6825   -5.2293    2.1551 C.ar      1 <0>        -0.0605
     11 C9         -1.8502   -5.8165    3.1079 C.ar      1 <0>        -0.0520
     12 C10        -0.5528   -5.3369    3.2873 C.ar      1 <0>        -0.0441
     13 C11        -0.0946   -4.2874    2.5190 C.ar      1 <0>        -0.1970
     14 C12        -2.3436   -6.9475    3.9286 C.2       1 <0>        -0.1940
     15 C13        -3.5496   -6.9946    4.6379 C.2       1 <0>         0.1152
     16 N3         -3.6403   -8.1538    5.2420 N.2       1 <0>        -0.3263
     17 N4         -2.5008   -8.9132    4.9549 N.pl3     1 <0>        -0.3452
     18 C14        -1.6934   -8.1702    4.1339 C.2       1 <0>         0.3061
     19 N5         -0.5269   -8.6543    3.6919 N.2       1 <0>        -0.4980
     20 C15        -0.1149   -9.8565    4.0246 C.2       1 <0>         0.2334
     21 C16        -0.9017  -10.6667    4.8615 C.2       1 <0>        -0.2653
     22 C17        -2.1129  -10.1707    5.3332 C.2       1 <0>         0.5045
     23 N6         -2.9116  -10.9338    6.1524 N.pl3     1 <0>        -0.8254
     24 C18        -0.4444  -12.0247    5.2419 C.ar      1 <0>        -0.0040
     25 C19        -0.1538  -12.3172    6.5742 C.ar      1 <0>        -0.1259
     26 C20         0.2717  -13.5821    6.9256 C.ar      1 <0>        -0.0970
     27 C21         0.4111  -14.5619    5.9600 C.ar      1 <0>        -0.1420
     28 C22         0.1240  -14.2793    4.6317 C.ar      1 <0>         0.1117
     29 C23        -0.3093  -13.0141    4.2705 C.ar      1 <0>        -0.1283
     30 O1          0.2629  -15.2455    3.6861 O.3       1 <0>        -0.4976
     31 H1          0.9815    1.8488   -0.0023 H         1 <0>         0.0703
     32 H2         -0.5597    1.8183   -0.8922 H         1 <0>         0.0699
     33 H3         -0.5596    1.8161    0.8877 H         1 <0>         0.0255
     34 H4         -1.9211   -0.3309    0.8015 H         1 <0>         0.0383
     35 H5         -1.8734   -0.1179   -0.9655 H         1 <0>         0.0850
     36 H6         -2.2810   -2.5075   -0.2512 H         1 <0>         0.0873
     37 H7         -0.8158   -2.3069   -1.2480 H         1 <0>         0.0691
     38 H8          1.2690   -2.4375    1.9803 H         1 <0>         0.0870
     39 H9          1.5267   -2.2607    0.2244 H         1 <0>         0.0690
     40 H10         1.6684   -0.0481    1.2608 H         1 <0>         0.0852
     41 H11         0.1033   -0.2910    2.0740 H         1 <0>         0.0383
     42 H12        -2.8649   -3.7217    0.6552 H         1 <0>         0.1212
     43 H13        -3.6876   -5.5985    2.0144 H         1 <0>         0.1190
     44 H14         0.0937   -5.7895    4.0247 H         1 <0>         0.1180
     45 H15         0.9114   -3.9185    2.6544 H         1 <0>         0.1207
     46 H16        -4.2847   -6.2045    4.6808 H         1 <0>         0.1987
     47 H17         0.8307  -10.2235    3.6538 H         1 <0>         0.1770
     48 H18        -3.7588  -10.5824    6.4679 H         1 <0>         0.4174
     49 H19        -2.6276  -11.8235    6.4146 H         1 <0>         0.4238
     50 H20        -0.2614  -11.5539    7.3306 H         1 <0>         0.1255
     51 H21         0.4968  -13.8072    7.9576 H         1 <0>         0.1311
     52 H22         0.7448  -15.5502    6.2402 H         1 <0>         0.1309
     53 H23        -0.5373  -12.7940    3.2381 H         1 <0>         0.1324
     54 H24        -0.5353  -15.7717    3.5413 H         1 <0>         0.3929
@<TRIPOS>BOND
     1    1    2 1
     2    1   31 1
     3    1   32 1
     4    1   33 1
     5    2    7 1
     6    2    3 1
     7    3    4 1
     8    3   34 1
     9    3   35 1
    10    4    5 1
    11    4   36 1
    12    4   37 1
    13    5    6 1
    14    5    8 1
    15    6    7 1
    16    6   38 1
    17    6   39 1
    18    7   40 1
    19    7   41 1
    20    8   13 ar
    21    8    9 ar
    22    9   10 ar
    23    9   42 1
    24   10   11 ar
    25   10   43 1
    26   11   12 ar
    27   11   14 1
    28   12   13 ar
    29   12   44 1
    30   13   45 1
    31   14   18 2
    32   14   15 1
    33   15   16 2
    34   15   46 1
    35   16   17 1
    36   17   22 1
    37   17   18 1
    38   18   19 1
    39   19   20 2
    40   20   21 1
    41   20   47 1
    42   21   22 2
    43   21   24 1
    44   22   23 1
    45   23   48 1
    46   23   49 1
    47   24   29 ar
    48   24   25 ar
    49   25   26 ar
    50   25   50 1
    51   26   27 ar
    52   26   51 1
    53   27   28 ar
    54   27   52 1
    55   28   29 ar
    56   28   30 1
    57   29   53 1
    58   30   54 1
@<TRIPOS>MOLECULE
CHEMBL571581
   65    70     0     0     0
SMALL
USER_CHARGES

@<TRIPOS>ATOM
      1 C1          0.2898    1.5314    0.0430 C.3       1 <0>        -0.1051
      2 C2         -1.0522    1.2556    0.6707 C.ar      1 <0>        -0.0993
      3 C3         -2.2172    1.7590    0.0881 C.ar      1 <0>        -0.0647
      4 C4         -2.4901    2.5706   -1.1007 C.2       1 <0>        -0.2131
      5 C5         -3.8196    2.7463   -1.1598 C.2       1 <0>         0.0624
      6 N1         -4.4211    2.1139   -0.1064 N.pl3     1 <0>        -0.5968
      7 H1         -5.3760    2.0994    0.0635 H         1 <0>         0.4158
      8 C6         -3.4673    1.4991    0.6774 C.ar      1 <0>         0.0641
      9 C7         -3.5328    0.7396    1.8412 C.ar      1 <0>        -0.0901
     10 C8         -2.3792    0.2479    2.4084 C.ar      1 <0>        -0.1478
     11 C9         -1.1382    0.4980    1.8238 C.ar      1 <0>         0.1760
     12 N2          0.0251   -0.0146    2.4100 N.pl3     1 <0>        -0.7089
     13 C10        -0.0438   -0.6673    3.6282 C.ar      1 <0>         0.2768
     14 C11        -0.3276   -2.0445    3.6984 C.ar      1 <0>        -0.0796
     15 C12        -0.3859   -2.6575    4.9508 C.ar      1 <0>         0.1762
     16 N3         -0.1800   -1.9667    6.0536 N.ar      1 <0>        -0.4706
     17 C13         0.0888   -0.6754    6.0363 C.ar      1 <0>         0.1670
     18 C14         0.1735    0.0239    4.8346 C.ar      1 <0>        -0.0960
     19 C15         0.4808    1.4687    4.8270 C.2       1 <0>         0.0982
     20 C16        -0.1426    2.4016    5.5866 C.2       1 <0>        -0.1832
     21 C17         0.4834    3.6827    5.2511 C.ar      1 <0>        -0.1242
     22 C18         0.2967    4.9984    5.6776 C.ar      1 <0>        -0.0658
     23 C19         1.0683    5.9971    5.1517 C.ar      1 <0>        -0.1078
     24 C20         2.0342    5.7102    4.1980 C.ar      1 <0>        -0.0701
     25 C21         2.2330    4.4164    3.7638 C.ar      1 <0>        -0.0998
     26 C22         1.4609    3.3861    4.2847 C.ar      1 <0>         0.0702
     27 O1          1.4272    2.0553    4.0678 O.3       1 <0>        -0.1787
     28 C23         0.8680    7.4185    5.6106 C.3       1 <0>         0.1015
     29 N4          1.7368    7.6878    6.7641 N.3       1 <0>        -0.5346
     30 C24         1.3288    6.8893    7.9286 C.3       1 <0>         0.0188
     31 C25         2.2925    7.1535    9.0875 C.3       1 <0>        -0.0022
     32 N5          2.2753    8.5835    9.4225 N.4       1 <0>        -0.3884
     33 C26         2.7087    9.3663    8.2576 C.3       1 <0>        -0.0023
     34 C27         1.7484    9.1205    7.0917 C.3       1 <0>         0.0247
     35 C28         3.1870    8.8338   10.5468 C.3       1 <0>        -0.0459
     36 C29        -0.5532   -2.8033    2.5051 C.1       1 <0>         0.2480
     37 N6         -0.7322   -3.4052    1.5584 N.1       1 <0>        -0.3789
     38 H2          0.5234    0.7454   -0.6752 H         1 <0>         0.0683
     39 H3          0.2609    2.4937   -0.4681 H         1 <0>         0.0701
     40 H4          1.0556    1.5545    0.8182 H         1 <0>         0.0574
     41 H5         -1.7598    2.9550   -1.7974 H         1 <0>         0.1453
     42 H6         -4.3377    3.3047   -1.9254 H         1 <0>         0.1712
     43 H7         -4.4891    0.5360    2.2999 H         1 <0>         0.1225
     44 H8         -2.4361   -0.3409    3.3121 H         1 <0>         0.1197
     45 H9          0.8794    0.0878    1.9622 H         1 <0>         0.4176
     46 H10        -0.6031   -3.7134    5.0170 H         1 <0>         0.1790
     47 H11         0.2495   -0.1532    6.9679 H         1 <0>         0.1741
     48 H12        -0.9399    2.2345    6.2957 H         1 <0>         0.1629
     49 H13        -0.4541    5.2267    6.4196 H         1 <0>         0.1235
     50 H14         2.6368    6.5087    3.7909 H         1 <0>         0.1369
     51 H15         2.9875    4.2049    3.0206 H         1 <0>         0.1365
     52 H16         1.1197    8.1012    4.7989 H         1 <0>         0.0990
     53 H17        -0.1732    7.5642    5.8981 H         1 <0>         0.0566
     54 H18         0.3179    7.1690    8.2252 H         1 <0>         0.0608
     55 H19         1.3525    5.8306    7.6700 H         1 <0>         0.1265
     56 H20         1.9833    6.5730    9.9567 H         1 <0>         0.1354
     57 H21         3.3010    6.8609    8.7953 H         1 <0>         0.1376
     58 H22         2.7080   10.4263    8.5115 H         1 <0>         0.1360
     59 H23         3.7151    9.0624    7.9696 H         1 <0>         0.1379
     60 H24         2.0782    9.6897    6.2226 H         1 <0>         0.1247
     61 H25         0.7444    9.4370    7.3746 H         1 <0>         0.0612
     62 H26         4.1982    8.5381   10.2674 H         1 <0>         0.1231
     63 H27         3.1744    9.8949   10.7956 H         1 <0>         0.1242
     64 H28         2.8649    8.2540   11.4118 H         1 <0>         0.1241
     65 H29         1.3393    8.8568    9.6817 H         1 <0>         0.4221
@<TRIPOS>BOND
     1    1    2 1
     2    1   38 1
     3    1   39 1
     4    1   40 1
     5    2   11 ar
     6    2    3 ar
     7    3    8 ar
     8    3    4 1
     9    4    5 2
    10    4   41 1
    11    5    6 1
    12    5   42 1
    13    6    7 1
    14    6    8 1
    15    8    9 ar
    16    9   10 ar
    17    9   43 1
    18   10   11 ar
    19   10   44 1
    20   11   12 1
    21   12   13 1
    22   12   45 1
    23   13   18 ar
    24   13   14 ar
    25   14   15 ar
    26   14   36 1
    27   15   16 ar
    28   15   46 1
    29   16   17 ar
    30   17   18 ar
    31   17   47 1
    32   18   19 1
    33   19   27 1
    34   19   20 2
    35   20   21 1
    36   20   48 1
    37   21   26 ar
    38   21   22 ar
    39   22   23 ar
    40   22   49 1
    41   23   24 ar
    42   23   28 1
    43   24   25 ar
    44   24   50 1
    45   25   26 ar
    46   25   51 1
    47   26   27 1
    48   28   29 1
    49   28   52 1
    50   28   53 1
    51   29   34 1
    52   29   30 1
    53   30   31 1
    54   30   54 1
    55   30   55 1
    56   31   32 1
    57   31   56 1
    58   31   57 1
    59   32   33 1
    60   32   35 1
    61   32   65 1
    62   33   34 1
    63   33   58 1
    64   33   59 1
    65   34   60 1
    66   34   61 1
    67   35   62 1
    68   35   63 1
    69   35   64 1
    70   36   37 3
@<TRIPOS>MOLECULE
CHEMBL571581__1
   65    70     0     0     0
SMALL
USER_CHARGES

@<TRIPOS>ATOM
      1 C1          0.2898    1.5314    0.0430 C.3       1 <0>        -0.1050
      2 C2         -1.0522    1.2556    0.6707 C.ar      1 <0>        -0.0999
      3 C3         -2.2172    1.7590    0.0881 C.ar      1 <0>        -0.0650
      4 C4         -2.4901    2.5706   -1.1007 C.2       1 <0>        -0.2141
      5 C5         -3.8196    2.7463   -1.1598 C.2       1 <0>         0.0640
      6 N1         -4.4211    2.1139   -0.1064 N.pl3     1 <0>        -0.5962
      7 H1         -5.3760    2.0994    0.0635 H         1 <0>         0.4166
      8 C6         -3.4673    1.4991    0.6774 C.ar      1 <0>         0.0647
      9 C7         -3.5328    0.7396    1.8412 C.ar      1 <0>        -0.0890
     10 C8         -2.3792    0.2479    2.4084 C.ar      1 <0>        -0.1484
     11 C9         -1.1382    0.4980    1.8238 C.ar      1 <0>         0.1738
     12 N2          0.0251   -0.0146    2.4100 N.pl3     1 <0>        -0.7102
     13 C10        -0.0438   -0.6673    3.6282 C.ar      1 <0>         0.2794
     14 C11        -0.3276   -2.0445    3.6984 C.ar      1 <0>        -0.0787
     15 C12        -0.3859   -2.6575    4.9508 C.ar      1 <0>         0.1806
     16 N3         -0.1800   -1.9667    6.0536 N.ar      1 <0>        -0.4693
     17 C13         0.0888   -0.6754    6.0363 C.ar      1 <0>         0.1708
     18 C14         0.1735    0.0239    4.8346 C.ar      1 <0>        -0.1048
     19 C15         0.4808    1.4687    4.8270 C.2       1 <0>         0.1114
     20 C16        -0.1426    2.4016    5.5866 C.2       1 <0>        -0.1823
     21 C17         0.4834    3.6827    5.2511 C.ar      1 <0>        -0.1229
     22 C18         0.2967    4.9984    5.6776 C.ar      1 <0>        -0.0392
     23 C19         1.0683    5.9971    5.1517 C.ar      1 <0>        -0.1745
     24 C20         2.0342    5.7102    4.1980 C.ar      1 <0>        -0.0789
     25 C21         2.2330    4.4164    3.7638 C.ar      1 <0>        -0.0911
     26 C22         1.4609    3.3861    4.2847 C.ar      1 <0>         0.0874
     27 O1          1.4272    2.0553    4.0678 O.3       1 <0>        -0.1736
     28 C23         0.8680    7.4185    5.6106 C.3       1 <0>         0.0494
     29 N4          1.7368    7.6878    6.7641 N.4       1 <0>        -0.3856
     30 C24         1.3205    6.8499    7.8964 C.3       1 <0>        -0.0074
     31 C25         2.2371    7.1163    9.0924 C.3       1 <0>         0.0262
     32 N5          2.1599    8.5377    9.4581 N.3       1 <0>        -0.5433
     33 C26         2.5501    9.3899    8.3260 C.3       1 <0>         0.0242
     34 C27         1.6310    9.1047    7.1363 C.3       1 <0>        -0.0025
     35 C28         2.9843    8.8227   10.6402 C.3       1 <0>         0.0194
     36 C29        -0.5532   -2.8033    2.5051 C.1       1 <0>         0.2460
     37 N6         -0.7322   -3.4052    1.5584 N.1       1 <0>        -0.3756
     38 H2          0.5234    0.7454   -0.6752 H         1 <0>         0.0691
     39 H3          0.2609    2.4937   -0.4681 H         1 <0>         0.0699
     40 H4          1.0556    1.5545    0.8182 H         1 <0>         0.0561
     41 H5         -1.7598    2.9550   -1.7974 H         1 <0>         0.1454
     42 H6         -4.3377    3.3047   -1.9254 H         1 <0>         0.1718
     43 H7         -4.4891    0.5360    2.2999 H         1 <0>         0.1234
     44 H8         -2.4361   -0.3409    3.3121 H         1 <0>         0.1201
     45 H9          0.8794    0.0878    1.9622 H         1 <0>         0.4177
     46 H10        -0.6031   -3.7134    5.0170 H         1 <0>         0.1806
     47 H11         0.2495   -0.1532    6.9679 H         1 <0>         0.1753
     48 H12        -0.9399    2.2345    6.2957 H         1 <0>         0.1697
     49 H13        -0.4541    5.2267    6.4196 H         1 <0>         0.1374
     50 H14         2.6368    6.5087    3.7909 H         1 <0>         0.1428
     51 H15         2.9875    4.2049    3.0206 H         1 <0>         0.1450
     52 H16         1.1197    8.1012    4.7989 H         1 <0>         0.1396
     53 H17        -0.1732    7.5642    5.8981 H         1 <0>         0.1372
     54 H18         0.2920    7.0891    8.1665 H         1 <0>         0.1375
     55 H19         1.3871    5.7990    7.6146 H         1 <0>         0.1351
     56 H20         1.9191    6.5056    9.9374 H         1 <0>         0.1229
     57 H21         3.2638    6.8642    8.8271 H         1 <0>         0.0598
     58 H22         2.4605   10.4379    8.6118 H         1 <0>         0.1240
     59 H23         3.5820    9.1753    8.0480 H         1 <0>         0.0602
     60 H24         1.9277    9.7256    6.2909 H         1 <0>         0.1367
     61 H25         0.6008    9.3324    7.4103 H         1 <0>         0.1385
     62 H26         4.0236    8.5725   10.4273 H         1 <0>         0.0393
     63 H27         2.9090    9.8812   10.8890 H         1 <0>         0.0838
     64 H28         2.6319    8.2258   11.4814 H         1 <0>         0.0842
     65 H29         2.6928    7.4744    6.5219 H         1 <0>         0.4201
@<TRIPOS>BOND
     1    1    2 1
     2    1   38 1
     3    1   39 1
     4    1   40 1
     5    2   11 ar
     6    2    3 ar
     7    3    8 ar
     8    3    4 1
     9    4    5 2
    10    4   41 1
    11    5    6 1
    12    5   42 1
    13    6    7 1
    14    6    8 1
    15    8    9 ar
    16    9   10 ar
    17    9   43 1
    18   10   11 ar
    19   10   44 1
    20   11   12 1
    21   12   13 1
    22   12   45 1
    23   13   18 ar
    24   13   14 ar
    25   14   15 ar
    26   14   36 1
    27   15   16 ar
    28   15   46 1
    29   16   17 ar
    30   17   18 ar
    31   17   47 1
    32   18   19 1
    33   19   27 1
    34   19   20 2
    35   20   21 1
    36   20   48 1
    37   21   26 ar
    38   21   22 ar
    39   22   23 ar
    40   22   49 1
    41   23   24 ar
    42   23   28 1
    43   24   25 ar
    44   24   50 1
    45   25   26 ar
    46   25   51 1
    47   26   27 1
    48   28   29 1
    49   28   52 1
    50   28   53 1
    51   29   34 1
    52   29   30 1
    53   29   65 1
    54   30   31 1
    55   30   54 1
    56   30   55 1
    57   31   32 1
    58   31   56 1
    59   31   57 1
    60   32   33 1
    61   32   35 1
    62   33   34 1
    63   33   58 1
    64   33   59 1
    65   34   60 1
    66   34   61 1
    67   35   62 1
    68   35   63 1
    69   35   64 1
    70   36   37 3
@<TRIPOS>MOLECULE
CHEMBL483158
   56    60     0     0     0
SMALL
USER_CHARGES

@<TRIPOS>ATOM
      1 C1         -0.2040    0.9845   -0.8352 C.3       1 <0>         0.0256
      2 O1         -0.0835   -0.4284   -0.6587 O.3       1 <0>        -0.3017
      3 C2         -1.2319   -1.1517   -0.6765 C.ar      1 <0>         0.1866
      4 C3         -2.4502   -0.5183   -0.8655 C.ar      1 <0>        -0.2196
      5 C4         -3.6193   -1.2543   -0.8837 C.ar      1 <0>        -0.0395
      6 C5         -3.5850   -2.6274   -0.7142 C.ar      1 <0>        -0.1916
      7 C6         -2.3795   -3.2754   -0.5250 C.ar      1 <0>         0.1598
      8 C7         -1.1898   -2.5415   -0.5097 C.ar      1 <0>        -0.1236
      9 C8          0.1047   -3.2278   -0.3129 C.2       1 <0>         0.2678
     10 N1          0.5160   -3.3730    0.8954 N.2       1 <0>        -0.4689
     11 C9          1.7785   -4.0272    1.2217 C.3       1 <0>         0.0956
     12 C10         2.9199   -3.2056    0.6935 C.ar      1 <0>        -0.2522
     13 C11         3.8259   -2.6457    1.5812 C.ar      1 <0>         0.2142
     14 N2          4.8229   -1.9150    1.1091 N.ar      1 <0>        -0.5345
     15 C12         4.9598   -1.7145   -0.1938 C.ar      1 <0>         0.5693
     16 N3          4.1186   -2.2352   -1.0706 N.ar      1 <0>        -0.5555
     17 C13         3.0917   -2.9897   -0.6643 C.ar      1 <0>         0.2576
     18 C14         2.1946   -3.5744   -1.6848 C.ar      1 <0>        -0.0162
     19 C15         0.8112   -3.6926   -1.5175 C.ar      1 <0>        -0.0529
     20 C16         0.0413   -4.2728   -2.5349 C.ar      1 <0>        -0.0849
     21 C17         0.6362   -4.7246   -3.6934 C.ar      1 <0>        -0.0215
     22 C18         2.0065   -4.6080   -3.8626 C.ar      1 <0>        -0.1016
     23 C19         2.7841   -4.0317   -2.8697 C.ar      1 <0>        -0.0641
     24 Cl1        -0.3331   -5.4416   -4.9425 Cl        1 <0>        -0.0600
     25 N4          6.0133   -0.9375   -0.6494 N.pl3     1 <0>        -0.6277
     26 C20         6.9751   -0.4766    0.2441 C.ar      1 <0>         0.1805
     27 C21         7.3397   -1.2613    1.3376 C.ar      1 <0>        -0.1626
     28 C22         8.2810   -0.8195    2.2202 C.ar      1 <0>        -0.0316
     29 C23         8.8890    0.4285    2.0325 C.ar      1 <0>        -0.1758
     30 C24         8.5248    1.2226    0.9314 C.ar      1 <0>         0.1738
     31 C25         7.5723    0.7610    0.0401 C.ar      1 <0>        -0.2543
     32 O2          9.1071    2.4325    0.7411 O.3       1 <0>        -0.2640
     33 C26         8.6861    3.1828   -0.3999 C.3       1 <0>         0.0216
     34 C27         9.9019    0.9053    2.9822 C.2       1 <0>         0.5224
     35 O3         10.2169    0.2119    3.9404 O.co2     1 <0>        -0.6966
     36 O4         10.4315    1.9961    2.8158 O.co2     1 <0>        -0.6716
     37 F1         -2.3501   -4.6159   -0.3594 F         1 <0>        -0.1258
     38 H1          0.7854    1.4407   -0.8003 H         1 <0>         0.1029
     39 H2         -0.6659    1.1920   -1.8004 H         1 <0>         0.0603
     40 H3         -0.8233    1.3986   -0.0395 H         1 <0>         0.0611
     41 H4         -2.4857    0.5529   -0.9985 H         1 <0>         0.1396
     42 H5         -4.5657   -0.7551   -1.0307 H         1 <0>         0.1394
     43 H6         -4.5040   -3.1945   -0.7295 H         1 <0>         0.1424
     44 H7          1.8694   -4.1221    2.3038 H         1 <0>         0.1097
     45 H8          1.8028   -5.0175    0.7669 H         1 <0>         0.0763
     46 H9          3.7190   -2.8037    2.6442 H         1 <0>         0.1771
     47 H10        -1.0273   -4.3670   -2.4099 H         1 <0>         0.1387
     48 H11         2.4696   -4.9611   -4.7721 H         1 <0>         0.1437
     49 H12         3.8518   -3.9427   -3.0054 H         1 <0>         0.1461
     50 H13         6.0800   -0.7150   -1.5912 H         1 <0>         0.4196
     51 H14         6.8739   -2.2242    1.4867 H         1 <0>         0.1256
     52 H15         8.5578   -1.4326    3.0652 H         1 <0>         0.1351
     53 H16         7.2905    1.3637   -0.8106 H         1 <0>         0.1220
     54 H17         8.8922    2.6128   -1.3059 H         1 <0>         0.0452
     55 H18         7.6164    3.3803   -0.3304 H         1 <0>         0.0447
     56 H19         9.2286    4.1276   -0.4338 H         1 <0>         0.0939
@<TRIPOS>BOND
     1    1    2 1
     2    1   38 1
     3    1   39 1
     4    1   40 1
     5    2    3 1
     6    3    8 ar
     7    3    4 ar
     8    4    5 ar
     9    4   41 1
    10    5    6 ar
    11    5   42 1
    12    6    7 ar
    13    6   43 1
    14    7    8 ar
    15    7   37 1
    16    8    9 1
    17    9   19 1
    18    9   10 2
    19   10   11 1
    20   11   12 1
    21   11   44 1
    22   11   45 1
    23   12   17 ar
    24   12   13 ar
    25   13   14 ar
    26   13   46 1
    27   14   15 ar
    28   15   16 ar
    29   15   25 1
    30   16   17 ar
    31   17   18 1
    32   18   23 ar
    33   18   19 ar
    34   19   20 ar
    35   20   21 ar
    36   20   47 1
    37   21   22 ar
    38   21   24 1
    39   22   23 ar
    40   22   48 1
    41   23   49 1
    42   25   26 1
    43   25   50 1
    44   26   31 ar
    45   26   27 ar
    46   27   28 ar
    47   27   51 1
    48   28   29 ar
    49   28   52 1
    50   29   30 ar
    51   29   34 1
    52   30   31 ar
    53   30   32 1
    54   31   53 1
    55   32   33 1
    56   33   54 1
    57   33   55 1
    58   33   56 1
    59   34   35 2
    60   34   36 1
@<TRIPOS>MOLECULE
CHEMBL483158__1
   57    61     0     0     0
SMALL
USER_CHARGES

@<TRIPOS>ATOM
      1 C1          0.8147    0.9923    0.2619 C.3       1 <0>         0.0212
      2 O1          0.6236   -0.4238    0.2497 O.3       1 <0>        -0.3107
      3 C2          1.2242   -1.1180   -0.7501 C.ar      1 <0>         0.2135
      4 C3          1.9869   -0.4535   -1.6978 C.ar      1 <0>        -0.2108
      5 C4          2.5983   -1.1599   -2.7157 C.ar      1 <0>        -0.0002
      6 C5          2.4558   -2.5340   -2.7981 C.ar      1 <0>        -0.1786
      7 C6          1.6996   -3.2128   -1.8619 C.ar      1 <0>         0.1791
      8 C7          1.0803   -2.5090   -0.8248 C.ar      1 <0>        -0.2530
      9 C8          0.2737   -3.2283    0.1839 C.2       1 <0>         0.4688
     10 N1         -0.9759   -3.3880   -0.0670 N.pl3     1 <0>        -0.5010
     11 C9         -1.8793   -4.0748    0.8499 C.3       1 <0>         0.1152
     12 C10        -2.0050   -3.2802    2.1186 C.ar      1 <0>        -0.3087
     13 C11        -3.2353   -2.7464    2.4704 C.ar      1 <0>         0.2384
     14 N2         -3.3360   -2.0392    3.5843 N.ar      1 <0>        -0.5250
     15 C12        -2.2792   -1.8377    4.3583 C.ar      1 <0>         0.5898
     16 N3         -1.0914   -2.3340    4.0578 N.ar      1 <0>        -0.5512
     17 C13        -0.9183   -3.0640    2.9505 C.ar      1 <0>         0.2661
     18 C14         0.4229   -3.6224    2.6723 C.ar      1 <0>         0.0186
     19 C15         0.9711   -3.7064    1.3885 C.ar      1 <0>        -0.1053
     20 C16         2.2460   -4.2635    1.2190 C.ar      1 <0>        -0.0468
     21 C17         2.9591   -4.7261    2.3043 C.ar      1 <0>        -0.0275
     22 C18         2.4191   -4.6434    3.5776 C.ar      1 <0>        -0.0512
     23 C19         1.1616   -4.0902    3.7659 C.ar      1 <0>        -0.0628
     24 Cl1         4.5364   -5.4141    2.0751 Cl        1 <0>        -0.0261
     25 N4         -2.4231   -1.0858    5.5136 N.pl3     1 <0>        -0.6071
     26 C20        -3.6848   -0.6523    5.9089 C.ar      1 <0>         0.1561
     27 C21        -4.8018   -1.4498    5.6622 C.ar      1 <0>        -0.1572
     28 C22        -6.0434   -1.0349    6.0448 C.ar      1 <0>        -0.0340
     29 C23        -6.2041    0.1982    6.6900 C.ar      1 <0>        -0.1614
     30 C24        -5.0810    1.0051    6.9410 C.ar      1 <0>         0.1755
     31 C25        -3.8258    0.5706    6.5527 C.ar      1 <0>        -0.2453
     32 O2         -5.2259    2.2006    7.5646 O.3       1 <0>        -0.2605
     33 C26        -4.0391    2.9652    7.7855 C.3       1 <0>         0.0205
     34 C27        -7.5403    0.6460    7.1018 C.2       1 <0>         0.5187
     35 O3         -8.5166   -0.0584    6.8815 O.co2     1 <0>        -0.6914
     36 O4         -7.6778    1.7238    7.6653 O.co2     1 <0>        -0.6649
     37 F1          1.5624   -4.5541   -1.9461 F         1 <0>        -0.1168
     38 H1          1.8782    1.2147    0.3487 H         1 <0>         0.0723
     39 H2          0.4286    1.4190   -0.6638 H         1 <0>         0.0715
     40 H3          0.2830    1.4234    1.1102 H         1 <0>         0.1148
     41 H4          2.1031    0.6187   -1.6406 H         1 <0>         0.1564
     42 H5          3.1908   -0.6365   -3.4516 H         1 <0>         0.1568
     43 H6          2.9371   -3.0778   -3.5975 H         1 <0>         0.1602
     44 H7         -2.8604   -4.1757    0.3857 H         1 <0>         0.1483
     45 H8         -1.4822   -5.0638    1.0784 H         1 <0>         0.1320
     46 H9         -4.1000   -2.9054    1.8433 H         1 <0>         0.1852
     47 H10         2.6733   -4.3313    0.2294 H         1 <0>         0.1507
     48 H11         2.9808   -5.0048    4.4262 H         1 <0>         0.1617
     49 H12         0.7442   -4.0275    4.7600 H         1 <0>         0.1629
     50 H13        -1.6443   -0.8618    6.0467 H         1 <0>         0.4249
     51 H14        -4.6831   -2.4012    5.1651 H         1 <0>         0.1241
     52 H15        -6.9040   -1.6576    5.8497 H         1 <0>         0.1388
     53 H16        -2.9577    1.1832    6.7462 H         1 <0>         0.1248
     54 H17        -4.2955    3.8962    8.2910 H         1 <0>         0.0980
     55 H18        -3.3486    2.3934    8.4054 H         1 <0>         0.0468
     56 H19        -3.5678    3.1892    6.8285 H         1 <0>         0.0449
     57 H20        -1.3329   -3.0381   -0.8983 H         1 <0>         0.4410
@<TRIPOS>BOND
     1    1    2 1
     2    1   38 1
     3    1   39 1
     4    1   40 1
     5    2    3 1
     6    3    8 ar
     7    3    4 ar
     8    4    5 ar
     9    4   41 1
    10    5    6 ar
    11    5   42 1
    12    6    7 ar
    13    6   43 1
    14    7    8 ar
    15    7   37 1
    16    8    9 1
    17    9   19 1
    18    9   10 2
    19   10   11 1
    20   10   57 1
    21   11   12 1
    22   11   44 1
    23   11   45 1
    24   12   17 ar
    25   12   13 ar
    26   13   14 ar
    27   13   46 1
    28   14   15 ar
    29   15   16 ar
    30   15   25 1
    31   16   17 ar
    32   17   18 1
    33   18   23 ar
    34   18   19 ar
    35   19   20 ar
    36   20   21 ar
    37   20   47 1
    38   21   22 ar
    39   21   24 1
    40   22   23 ar
    41   22   48 1
    42   23   49 1
    43   25   26 1
    44   25   50 1
    45   26   31 ar
    46   26   27 ar
    47   27   28 ar
    48   27   51 1
    49   28   29 ar
    50   28   52 1
    51   29   30 ar
    52   29   34 1
    53   30   31 ar
    54   30   32 1
    55   31   53 1
    56   32   33 1
    57   33   54 1
    58   33   55 1
    59   33   56 1
    60   34   35 2
    61   34   36 1
@<TRIPOS>MOLECULE
CHEMBL282587
   34    37     0     0     0
SMALL
USER_CHARGES

@<TRIPOS>ATOM
      1 C1         -0.0166    1.3748    0.0096 C.ar      1 <0>        -0.1107
      2 C2          1.1704    2.0868    0.0021 C.ar      1 <0>        -0.0831
      3 C3          2.3830    1.4221   -0.0131 C.ar      1 <0>        -0.0978
      4 C4          2.4169    0.0415   -0.0213 C.ar      1 <0>        -0.0413
      5 C5          1.2224   -0.6828   -0.0138 C.ar      1 <0>        -0.1150
      6 C6          0.0021   -0.0041    0.0020 C.ar      1 <0>        -0.0812
      7 C7          1.2500   -2.1598   -0.0225 C.2       1 <0>         0.5389
      8 O1          2.3138   -2.7477   -0.0362 O.2       1 <0>        -0.4224
      9 N1          0.0957   -2.8555   -0.0152 N.am      1 <0>        -0.6387
     10 C8          0.1217   -4.2410   -0.0234 C.2       1 <0>         0.4592
     11 C9         -1.1285   -4.9963   -0.0215 C.2       1 <0>        -0.0782
     12 C10        -2.4582   -4.6531   -0.0129 C.2       1 <0>         0.0421
     13 N2         -3.1648   -5.7859   -0.0159 N.2       1 <0>        -0.4655
     14 C11        -2.3540   -6.8149   -0.0259 C.2       1 <0>         0.2021
     15 N3         -1.0830   -6.3788   -0.0297 N.pl3     1 <0>        -0.3648
     16 C12         0.1562   -7.0076   -0.0399 C.ar      1 <0>         0.0631
     17 C13         0.2399   -8.3929   -0.0489 C.ar      1 <0>        -0.1139
     18 C14         1.4740   -9.0105   -0.0594 C.ar      1 <0>        -0.1000
     19 C15         2.6360   -8.2545   -0.0607 C.ar      1 <0>        -0.1045
     20 C16         2.5732   -6.8794   -0.0515 C.ar      1 <0>        -0.0711
     21 C17         1.3293   -6.2361   -0.0417 C.ar      1 <0>         0.1238
     22 N4          1.2714   -4.8781   -0.0382 N.2       1 <0>        -0.4758
     23 Br1         4.0757   -0.8660   -0.0433 Br        1 <0>        -0.0038
     24 H1         -0.9599    1.9005    0.0260 H         1 <0>         0.1397
     25 H2          1.1494    3.1666    0.0077 H         1 <0>         0.1400
     26 H3          3.3054    1.9839   -0.0189 H         1 <0>         0.1426
     27 H4         -0.9251   -0.5579    0.0083 H         1 <0>         0.1343
     28 H5         -0.7532   -2.3863   -0.0042 H         1 <0>         0.4188
     29 H6         -2.8590   -3.6503   -0.0049 H         1 <0>         0.1870
     30 H7         -2.6592   -7.8509   -0.0300 H         1 <0>         0.2181
     31 H8         -0.6614   -8.9879   -0.0472 H         1 <0>         0.1344
     32 H9          1.5348  -10.0888   -0.0664 H         1 <0>         0.1384
     33 H10         3.5968   -8.7475   -0.0687 H         1 <0>         0.1388
     34 H11         3.4827   -6.2970   -0.0519 H         1 <0>         0.1462
@<TRIPOS>BOND
     1    1    6 ar
     2    1    2 ar
     3    1   24 1
     4    2    3 ar
     5    2   25 1
     6    3    4 ar
     7    3   26 1
     8    4    5 ar
     9    4   23 1
    10    5    6 ar
    11    5    7 1
    12    6   27 1
    13    7    8 2
    14    7    9 am
    15    9   10 1
    16    9   28 1
    17   10   22 2
    18   10   11 1
    19   11   15 1
    20   11   12 2
    21   12   13 1
    22   12   29 1
    23   13   14 2
    24   14   15 1
    25   14   30 1
    26   15   16 1
    27   16   21 ar
    28   16   17 ar
    29   17   18 ar
    30   17   31 1
    31   18   19 ar
    32   18   32 1
    33   19   20 ar
    34   19   33 1
    35   20   21 ar
    36   20   34 1
    37   21   22 1
@<TRIPOS>MOLECULE
CHEMBL186103
   49    53     0     0     0
SMALL
USER_CHARGES

@<TRIPOS>ATOM
      1 C1          2.6857   -0.2408    1.4013 C.3       1 <0>        -0.1118
      2 C2          1.5102   -0.8862    0.7136 C.ar      1 <0>        -0.0730
      3 C3          1.7017   -1.6164   -0.4434 C.ar      1 <0>        -0.1106
      4 C4          0.6243   -2.2095   -1.0751 C.ar      1 <0>        -0.1004
      5 C5         -0.6488   -2.0742   -0.5517 C.ar      1 <0>        -0.1123
      6 C6         -0.8477   -1.3452    0.6051 C.ar      1 <0>        -0.0117
      7 C7          0.2346   -0.7522    1.2454 C.ar      1 <0>         0.1559
      8 N1          0.0383   -0.0182    2.4191 N.pl3     1 <0>        -0.6483
      9 C8         -0.3519   -0.6615    3.5802 C.2       1 <0>         0.4785
     10 C9         -0.4479    0.0823    4.8345 C.2       1 <0>        -0.0660
     11 C10        -0.2277    1.3888    5.1940 C.2       1 <0>         0.0407
     12 N2         -0.4796    1.4937    6.5013 N.2       1 <0>        -0.4702
     13 C11        -0.8440    0.3296    6.9781 C.2       1 <0>         0.2218
     14 N3         -0.8401   -0.5777    5.9847 N.pl3     1 <0>        -0.3637
     15 C12        -1.1332   -1.9316    5.9150 C.ar      1 <0>         0.3116
     16 C13        -1.0263   -2.6003    4.6855 C.ar      1 <0>         0.0506
     17 N4         -0.6434   -1.9441    3.5588 N.2       1 <0>        -0.5214
     18 C14        -1.3259   -3.9703    4.6294 C.ar      1 <0>        -0.0002
     19 C15        -1.7149   -4.6061    5.7901 C.ar      1 <0>        -0.2157
     20 C16        -1.7985   -3.8771    6.9746 C.ar      1 <0>         0.4298
     21 N5         -1.5115   -2.5863    7.0031 N.ar      1 <0>        -0.5455
     22 N6         -2.1909   -4.5168    8.1454 N.pl3     1 <0>        -0.6026
     23 C17        -2.5193   -3.7404    9.3487 C.3       1 <0>         0.1245
     24 C18        -3.9126   -4.1509    9.8354 C.3       1 <0>        -0.1370
     25 C19        -3.9523   -5.6676   10.0358 C.3       1 <0>        -0.1208
     26 C20        -3.6809   -6.3673    8.7021 C.3       1 <0>        -0.1375
     27 C21        -2.2908   -5.9816    8.2008 C.3       1 <0>         0.1212
     28 Cl1        -2.4458   -1.1756    1.2617 Cl        1 <0>        -0.0555
     29 H1          3.1115   -0.9375    2.1235 H         1 <0>         0.0738
     30 H2          3.4410    0.0214    0.6605 H         1 <0>         0.0726
     31 H3          2.3547    0.6604    1.9174 H         1 <0>         0.0670
     32 H4          2.6943   -1.7240   -0.8552 H         1 <0>         0.1325
     33 H5          0.7771   -2.7794   -1.9797 H         1 <0>         0.1340
     34 H6         -1.4883   -2.5384   -1.0479 H         1 <0>         0.1352
     35 H7          0.1756    0.9421    2.4194 H         1 <0>         0.4221
     36 H8          0.0915    2.1862    4.5392 H         1 <0>         0.1866
     37 H9         -1.1057    0.1294    8.0066 H         1 <0>         0.2166
     38 H10        -1.2540   -4.5139    3.6990 H         1 <0>         0.1528
     39 H11        -1.9527   -5.6596    5.7808 H         1 <0>         0.1472
     40 H12        -1.7850   -3.9456   10.1277 H         1 <0>         0.0631
     41 H13        -2.5143   -2.6768    9.1100 H         1 <0>         0.0915
     42 H14        -4.1291   -3.6532   10.7807 H         1 <0>         0.0756
     43 H15        -4.6569   -3.8624    9.0931 H         1 <0>         0.0651
     44 H16        -3.1911   -5.9582   10.7599 H         1 <0>         0.0650
     45 H17        -4.9352   -5.9594   10.4057 H         1 <0>         0.0663
     46 H18        -3.7324   -7.4472    8.8408 H         1 <0>         0.0782
     47 H19        -4.4273   -6.0580    7.9705 H         1 <0>         0.0679
     48 H20        -2.1351   -6.3964    7.2049 H         1 <0>         0.0865
     49 H21        -1.5375   -6.3737    8.8841 H         1 <0>         0.0701
@<TRIPOS>BOND
     1    1    2 1
     2    1   29 1
     3    1   30 1
     4    1   31 1
     5    2    7 ar
     6    2    3 ar
     7    3    4 ar
     8    3   32 1
     9    4    5 ar
    10    4   33 1
    11    5    6 ar
    12    5   34 1
    13    6    7 ar
    14    6   28 1
    15    7    8 1
    16    8    9 1
    17    8   35 1
    18    9   17 2
    19    9   10 1
    20   10   14 1
    21   10   11 2
    22   11   12 1
    23   11   36 1
    24   12   13 2
    25   13   14 1
    26   13   37 1
    27   14   15 1
    28   15   21 ar
    29   15   16 ar
    30   16   17 1
    31   16   18 ar
    32   18   19 ar
    33   18   38 1
    34   19   20 ar
    35   19   39 1
    36   20   21 ar
    37   20   22 1
    38   22   27 1
    39   22   23 1
    40   23   24 1
    41   23   40 1
    42   23   41 1
    43   24   25 1
    44   24   42 1
    45   24   43 1
    46   25   26 1
    47   25   44 1
    48   25   45 1
    49   26   27 1
    50   26   46 1
    51   26   47 1
    52   27   48 1
    53   27   49 1
@<TRIPOS>MOLECULE
CHEMBL189338
   52    56     0     0     0
SMALL
USER_CHARGES

@<TRIPOS>ATOM
      1 C1          2.6846   -0.2361    1.4036 C.3       1 <0>        -0.1133
      2 C2          1.5111   -0.8840    0.7151 C.ar      1 <0>        -0.0695
      3 C3          1.7050   -1.6146   -0.4413 C.ar      1 <0>        -0.1090
      4 C4          0.6293   -2.2100   -1.0737 C.ar      1 <0>        -0.0950
      5 C5         -0.6446   -2.0766   -0.5517 C.ar      1 <0>        -0.1113
      6 C6         -0.8459   -1.3474    0.6045 C.ar      1 <0>        -0.0102
      7 C7          0.2347   -0.7520    1.2455 C.ar      1 <0>         0.1449
      8 N1          0.0358   -0.0176    2.4186 N.pl3     1 <0>        -0.6388
      9 C8         -0.3544   -0.6609    3.5797 C.2       1 <0>         0.5009
     10 C9         -0.4529    0.0834    4.8334 C.2       1 <0>        -0.0731
     11 C10        -0.2353    1.3905    5.1923 C.2       1 <0>         0.0562
     12 N2         -0.4888    1.4958    6.4994 N.2       1 <0>        -0.4648
     13 C11        -0.8515    0.3313    6.9765 C.2       1 <0>         0.2246
     14 N3         -0.8450   -0.5766    5.9837 N.pl3     1 <0>        -0.3679
     15 C12        -1.1356   -1.9310    5.9145 C.ar      1 <0>         0.3012
     16 C13        -1.0264   -2.6003    4.6855 C.ar      1 <0>         0.0856
     17 N4         -0.6435   -1.9441    3.5588 N.2       1 <0>        -0.5352
     18 C14        -1.3235   -3.9708    4.6299 C.ar      1 <0>        -0.0033
     19 C15        -1.7124   -4.6067    5.7907 C.ar      1 <0>        -0.2037
     20 C16        -1.7985   -3.8771    6.9746 C.ar      1 <0>         0.4041
     21 N5         -1.5139   -2.5858    7.0026 N.ar      1 <0>        -0.5331
     22 N6         -2.1909   -4.5168    8.1454 N.pl3     1 <0>        -0.6265
     23 C17        -2.5214   -3.7462    9.3541 C.3       1 <0>         0.1025
     24 C18        -1.7414   -4.3353   10.5341 C.3       1 <0>        -0.0211
     25 N7         -2.0223   -5.7730   10.6363 N.4       1 <0>        -0.5040
     26 C19        -1.5189   -6.4669    9.4442 C.3       1 <0>         0.0117
     27 H1         -0.4579   -6.2510    9.3189 H         1 <0>         0.1424
     28 C20        -2.2932   -5.9830    8.2085 C.3       1 <0>         0.1087
     29 C21        -1.7166   -7.9749    9.6101 C.3       1 <0>        -0.1824
     30 Cl1        -2.4450   -1.1802    1.2594 Cl        1 <0>        -0.0568
     31 H2          3.1110   -0.9315    2.1266 H         1 <0>         0.0737
     32 H3          3.4402    0.0270    0.6633 H         1 <0>         0.0760
     33 H4          2.3516    0.6648    1.9188 H         1 <0>         0.0667
     34 H5          2.6982   -1.7206   -0.8520 H         1 <0>         0.1353
     35 H6          0.7841   -2.7802   -1.9778 H         1 <0>         0.1370
     36 H7         -1.4827   -2.5427   -1.0484 H         1 <0>         0.1374
     37 H8          0.1714    0.9429    2.4184 H         1 <0>         0.4253
     38 H9          0.0830    2.1881    4.5374 H         1 <0>         0.1913
     39 H10        -1.1139    0.1313    8.0049 H         1 <0>         0.2169
     40 H11        -1.2496   -4.5149    3.6999 H         1 <0>         0.1592
     41 H12        -1.9484   -5.6606    5.7817 H         1 <0>         0.1463
     42 H13        -2.2384   -2.7032    9.2123 H         1 <0>         0.1356
     43 H14        -3.5912   -3.8150    9.5513 H         1 <0>         0.0892
     44 H15        -0.6737   -4.1840   10.3759 H         1 <0>         0.1338
     45 H16        -2.0464   -3.8391   11.4554 H         1 <0>         0.1458
     46 H17        -1.5691   -6.1454   11.4573 H         1 <0>         0.4317
     47 H18        -3.3404   -6.2738    8.2919 H         1 <0>         0.0966
     48 H19        -1.8594   -6.4195    7.3089 H         1 <0>         0.1285
     49 H20        -2.7777   -8.1907    9.7351 H         1 <0>         0.0854
     50 H21        -1.3429   -8.4899    8.7251 H         1 <0>         0.1101
     51 H22        -1.1701   -8.3186   10.4883 H         1 <0>         0.0879
     52 H23        -3.0184   -5.9153   10.7113 H         1 <0>         0.4267
@<TRIPOS>BOND
     1    1    2 1
     2    1   31 1
     3    1   32 1
     4    1   33 1
     5    2    7 ar
     6    2    3 ar
     7    3    4 ar
     8    3   34 1
     9    4    5 ar
    10    4   35 1
    11    5    6 ar
    12    5   36 1
    13    6    7 ar
    14    6   30 1
    15    7    8 1
    16    8    9 1
    17    8   37 1
    18    9   17 2
    19    9   10 1
    20   10   14 1
    21   10   11 2
    22   11   12 1
    23   11   38 1
    24   12   13 2
    25   13   14 1
    26   13   39 1
    27   14   15 1
    28   15   21 ar
    29   15   16 ar
    30   16   17 1
    31   16   18 ar
    32   18   19 ar
    33   18   40 1
    34   19   20 ar
    35   19   41 1
    36   20   21 ar
    37   20   22 1
    38   22   28 1
    39   22   23 1
    40   23   24 1
    41   23   42 1
    42   23   43 1
    43   24   25 1
    44   24   44 1
    45   24   45 1
    46   25   26 1
    47   25   46 1
    48   25   52 1
    49   26   27 1
    50   26   28 1
    51   26   29 1
    52   28   47 1
    53   28   48 1
    54   29   49 1
    55   29   50 1
    56   29   51 1
@<TRIPOS>MOLECULE
CHEMBL385698
   46    48     0     0     0
SMALL
USER_CHARGES

@<TRIPOS>ATOM
      1 C1         -1.8964    1.6675    0.2083 C.3       1 <0>        -0.1169
      2 C2         -1.4925    0.2275    0.0228 C.ar      1 <0>        -0.0818
      3 C3         -1.6742   -0.3895   -1.1999 C.ar      1 <0>        -0.1036
      4 C4         -1.3042   -1.7105   -1.3715 C.ar      1 <0>        -0.0996
      5 C5         -0.7512   -2.4193   -0.3204 C.ar      1 <0>        -0.1045
      6 C6         -0.5671   -1.8085    0.9053 C.ar      1 <0>        -0.0222
      7 C7         -0.9325   -0.4785    1.0788 C.ar      1 <0>         0.1354
      8 N1         -0.7419    0.1452    2.3165 N.am      1 <0>        -0.6667
      9 C8         -1.2146   -0.4292    3.4404 C.2       1 <0>         0.6020
     10 O1         -1.7179   -1.5368    3.3927 O.2       1 <0>        -0.4721
     11 C9         -1.1229    0.2779    4.7170 C.2       1 <0>        -0.2661
     12 C10        -1.5333   -0.1195    5.9820 C.2       1 <0>         0.1549
     13 N2         -1.3214    0.7297    6.9556 N.2       1 <0>        -0.5466
     14 C11        -0.7474    1.8998    6.7379 C.2       1 <0>         0.2550
     15 S1         -0.4447    1.8889    5.0825 S.3       1 <0>         0.2345
     16 N3         -0.4597    2.8931    7.6522 N.pl3     1 <0>        -0.5950
     17 C12        -0.6831    2.6762    9.0088 C.ar      1 <0>         0.4275
     18 C13        -1.0437    1.4096    9.4524 C.ar      1 <0>        -0.2120
     19 C14        -1.2637    1.2028   10.8045 C.ar      1 <0>         0.0640
     20 C15        -1.1152    2.2731   11.6715 C.ar      1 <0>        -0.2274
     21 C16        -0.7523    3.5144   11.1623 C.ar      1 <0>         0.4626
     22 N4         -0.5443    3.6780    9.8643 N.ar      1 <0>        -0.5325
     23 N5         -0.6010    4.5940   12.0246 N.pl3     1 <0>        -0.6967
     24 C17        -0.8237    4.4201   13.4621 C.3       1 <0>         0.1137
     25 C18        -0.5933    5.7522   14.1787 C.3       1 <0>         0.0582
     26 O2         -1.5777    6.6974   13.7552 O.3       1 <0>        -0.5765
     27 Cl1         0.1266   -2.6986    2.2245 Cl        1 <0>        -0.0449
     28 H1         -1.0567    2.3156   -0.0428 H         1 <0>         0.0768
     29 H2         -2.7391    1.8955   -0.4444 H         1 <0>         0.0783
     30 H3         -2.1854    1.8331    1.2461 H         1 <0>         0.0642
     31 H4         -2.1061    0.1608   -2.0227 H         1 <0>         0.1369
     32 H5         -1.4478   -2.1902   -2.3284 H         1 <0>         0.1388
     33 H6         -0.4632   -3.4511   -0.4578 H         1 <0>         0.1402
     34 H7         -0.2697    0.9910    2.3657 H         1 <0>         0.4080
     35 H8         -2.0024   -1.0770    6.1538 H         1 <0>         0.2043
     36 H9         -0.1018    3.7422    7.3493 H         1 <0>         0.4417
     37 H10        -1.1518    0.5956    8.7509 H         1 <0>         0.2181
     38 H11        -1.5452    0.2281   11.1747 H         1 <0>         0.1772
     39 H12        -1.2798    2.1444   12.7310 H         1 <0>         0.1776
     40 H13        -0.3479    5.4625   11.6746 H         1 <0>         0.4194
     41 H14        -1.8475    4.0877   13.6336 H         1 <0>         0.0973
     42 H15        -0.1298    3.6743   13.8497 H         1 <0>         0.1037
     43 H16        -0.6717    5.6037   15.2557 H         1 <0>         0.0830
     44 H17         0.4003    6.1286   13.9352 H         1 <0>         0.0612
     45 H18        -1.4924    7.5668   14.1700 H         1 <0>         0.3967
     46 H19        -0.2879    4.5526    9.5321 H         1 <0>         0.4337
@<TRIPOS>BOND
     1    1    2 1
     2    1   28 1
     3    1   29 1
     4    1   30 1
     5    2    7 ar
     6    2    3 ar
     7    3    4 ar
     8    3   31 1
     9    4    5 ar
    10    4   32 1
    11    5    6 ar
    12    5   33 1
    13    6    7 ar
    14    6   27 1
    15    7    8 1
    16    8    9 am
    17    8   34 1
    18    9   10 2
    19    9   11 1
    20   11   15 1
    21   11   12 2
    22   12   13 1
    23   12   35 1
    24   13   14 2
    25   14   15 1
    26   14   16 1
    27   16   17 1
    28   16   36 1
    29   17   22 ar
    30   17   18 ar
    31   18   19 ar
    32   18   37 1
    33   19   20 ar
    34   19   38 1
    35   20   21 ar
    36   20   39 1
    37   21   22 ar
    38   21   23 1
    39   22   46 1
    40   23   24 1
    41   23   40 1
    42   24   25 1
    43   24   41 1
    44   24   42 1
    45   25   26 1
    46   25   43 1
    47   25   44 1
    48   26   45 1
@<TRIPOS>MOLECULE
CHEMBL385698__1
   45    47     0     0     0
SMALL
USER_CHARGES

@<TRIPOS>ATOM
      1 C1         -1.3120    1.1513    0.2220 C.3       1 <0>        -0.1165
      2 C2         -0.6021   -0.1729    0.1054 C.ar      1 <0>        -0.0854
      3 C3         -0.6003   -0.8529   -1.0972 C.ar      1 <0>        -0.1056
      4 C4          0.0505   -2.0678   -1.2056 C.ar      1 <0>        -0.1075
      5 C5          0.7020   -2.6071   -0.1112 C.ar      1 <0>        -0.1066
      6 C6          0.7038   -1.9326    1.0948 C.ar      1 <0>        -0.0244
      7 C7          0.0554   -0.7079    1.2049 C.ar      1 <0>         0.1466
      8 N1          0.0603   -0.0190    2.4225 N.am      1 <0>        -0.6737
      9 C8         -0.3215   -0.6457    3.5529 C.2       1 <0>         0.6141
     10 O1         -0.5736   -1.8368    3.5332 O.2       1 <0>        -0.4927
     11 C9         -0.4330    0.1046    4.8029 C.2       1 <0>        -0.3149
     12 C10        -0.7974   -0.3315    6.0693 C.2       1 <0>         0.1734
     13 N2         -0.8102    0.5738    7.0148 N.2       1 <0>        -0.5241
     14 C11        -0.4922    1.8326    6.7692 C.2       1 <0>         0.3189
     15 S1         -0.1304    1.8347    5.1256 S.3       1 <0>         0.1258
     16 N3         -0.4597    2.8931    7.6522 N.pl3     1 <0>        -0.5943
     17 C12        -0.6831    2.6762    9.0088 C.ar      1 <0>         0.4116
     18 C13        -0.5375    3.7272    9.9062 C.ar      1 <0>        -0.2658
     19 C14        -0.7623    3.5023   11.2546 C.ar      1 <0>        -0.0037
     20 C15        -1.1265    2.2295   11.6626 C.ar      1 <0>        -0.2700
     21 C16        -1.2547    1.2225   10.7132 C.ar      1 <0>         0.4377
     22 N4         -1.0375    1.4715    9.4303 N.ar      1 <0>        -0.5315
     23 N5         -1.6198   -0.0576   11.1133 N.pl3     1 <0>        -0.7147
     24 C17        -1.8672   -0.3398   12.5294 C.3       1 <0>         0.1288
     25 C18        -2.2501   -1.8117   12.6967 C.3       1 <0>         0.0634
     26 O2         -1.1407   -2.6366   12.3351 O.3       1 <0>        -0.5699
     27 Cl1         1.5211   -2.6101    2.4684 Cl        1 <0>        -0.0433
     28 H1         -0.6218    1.9569   -0.0284 H         1 <0>         0.0755
     29 H2         -2.1584    1.1715   -0.4645 H         1 <0>         0.0752
     30 H3         -1.6693    1.2834    1.2433 H         1 <0>         0.0677
     31 H4         -1.1083   -0.4350   -1.9537 H         1 <0>         0.1336
     32 H5          0.0499   -2.5972   -2.1470 H         1 <0>         0.1348
     33 H6          1.2094   -3.5564   -0.1992 H         1 <0>         0.1368
     34 H7          0.3385    0.9098    2.4531 H         1 <0>         0.4087
     35 H8         -1.0567   -1.3617    6.2639 H         1 <0>         0.1852
     36 H9         -0.2811    3.7894    7.3273 H         1 <0>         0.4386
     37 H10        -0.2520    4.7083    9.5565 H         1 <0>         0.1329
     38 H11        -0.6556    4.3021   11.9724 H         1 <0>         0.1381
     39 H12        -1.3085    2.0219   12.7067 H         1 <0>         0.1313
     40 H13        -1.7107   -0.7641   10.4548 H         1 <0>         0.4102
     41 H14        -0.9650   -0.1315   13.1044 H         1 <0>         0.0721
     42 H15        -2.6807    0.2903   12.8887 H         1 <0>         0.0787
     43 H16        -2.5202   -2.0010   13.7356 H         1 <0>         0.0657
     44 H17        -3.0990   -2.0417   12.0529 H         1 <0>         0.0549
     45 H18        -1.3123   -3.5847   12.4171 H         1 <0>         0.3844
@<TRIPOS>BOND
     1    1    2 1
     2    1   28 1
     3    1   29 1
     4    1   30 1
     5    2    7 ar
     6    2    3 ar
     7    3    4 ar
     8    3   31 1
     9    4    5 ar
    10    4   32 1
    11    5    6 ar
    12    5   33 1
    13    6    7 ar
    14    6   27 1
    15    7    8 1
    16    8    9 am
    17    8   34 1
    18    9   10 2
    19    9   11 1
    20   11   15 1
    21   11   12 2
    22   12   13 1
    23   12   35 1
    24   13   14 2
    25   14   15 1
    26   14   16 1
    27   16   17 1
    28   16   36 1
    29   17   22 ar
    30   17   18 ar
    31   18   19 ar
    32   18   37 1
    33   19   20 ar
    34   19   38 1
    35   20   21 ar
    36   20   39 1
    37   21   22 ar
    38   21   23 1
    39   23   24 1
    40   23   40 1
    41   24   25 1
    42   24   41 1
    43   24   42 1
    44   25   26 1
    45   25   43 1
    46   25   44 1
    47   26   45 1
@<TRIPOS>MOLECULE
CHEMBL1084234
   79    84     0     0     0
SMALL
USER_CHARGES

@<TRIPOS>ATOM
      1 C1          0.0859    1.4930    0.0632 C.3       1 <0>        -0.0468
      2 N1          0.1026    0.0242    0.0532 N.4       1 <0>        -0.3837
      3 C2         -1.2768   -0.4792    0.0432 C.3       1 <0>        -0.0232
      4 C3         -1.2613   -2.0062   -0.0828 C.3       1 <0>         0.0996
      5 N2         -0.4226   -2.5545    0.9943 N.pl3     1 <0>        -0.6461
      6 C4          0.9229   -1.9899    1.1808 C.3       1 <0>         0.1002
      7 C5          0.8044   -0.4637    1.2472 C.3       1 <0>        -0.0229
      8 C6         -0.8913   -3.5827    1.8175 C.ar      1 <0>         0.1868
      9 C7         -2.2019   -4.0278    1.6934 C.ar      1 <0>        -0.1818
     10 C8         -2.6669   -5.0415    2.5044 C.ar      1 <0>        -0.0672
     11 C9         -1.8203   -5.6205    3.4497 C.ar      1 <0>        -0.0113
     12 C10        -0.5052   -5.1721    3.5718 C.ar      1 <0>        -0.0506
     13 C11        -0.0439   -4.1616    2.7546 C.ar      1 <0>        -0.1798
     14 C12        -2.3173   -6.7097    4.3230 C.2       1 <0>        -0.2265
     15 C13        -3.5003   -6.6996    5.0713 C.2       1 <0>         0.1195
     16 N3         -3.6028   -7.8355    5.7166 N.2       1 <0>        -0.3234
     17 N4         -2.4943   -8.6358    5.4193 N.pl3     1 <0>        -0.3432
     18 C14        -1.6941   -7.9430    4.5487 C.2       1 <0>         0.3202
     19 N5         -0.5562   -8.4740    4.0868 N.2       1 <0>        -0.5114
     20 C15        -0.1665   -9.6760    4.4467 C.2       1 <0>         0.2387
     21 C16        -0.9474  -10.4357    5.3346 C.2       1 <0>        -0.2518
     22 C17        -2.1286   -9.8906    5.8272 C.2       1 <0>         0.5039
     23 N6         -2.9213  -10.6042    6.6964 N.pl3     1 <0>        -0.8204
     24 C18        -0.5150  -11.7931    5.7460 C.ar      1 <0>        -0.0494
     25 C19        -0.1897  -12.0488    7.0776 C.ar      1 <0>        -0.0924
     26 C20         0.2117  -13.3121    7.4576 C.ar      1 <0>        -0.1143
     27 C21         0.2921  -14.3297    6.5150 C.ar      1 <0>         0.1778
     28 C22        -0.0315  -14.0776    5.1875 C.ar      1 <0>        -0.1430
     29 C23        -0.4385  -12.8174    4.8032 C.ar      1 <0>        -0.0774
     30 N7          0.7003  -15.6111    6.9034 N.am      1 <0>        -0.6893
     31 C24         0.3616  -16.0870    8.1180 C.2       1 <0>         0.7031
     32 O1         -0.3805  -15.4460    8.8369 O.2       1 <0>        -0.5711
     33 N8          0.8455  -17.2735    8.5359 N.am      1 <0>        -0.7377
     34 C25         0.4773  -17.7908    9.8561 C.3       1 <0>         0.1404
     35 C26         1.1565  -19.1431   10.0816 C.3       1 <0>        -0.0990
     36 C27         0.6087  -20.1621    9.0804 C.3       1 <0>        -0.1147
     37 C28         1.2879  -21.5145    9.3059 C.3       1 <0>        -0.1205
     38 C29         1.0050  -21.9961   10.7303 C.3       1 <0>        -0.1226
     39 C30         1.5528  -20.9770   11.7315 C.3       1 <0>        -0.1194
     40 C31         0.8736  -19.6247   11.5060 C.3       1 <0>        -0.1121
     41 H1          1.1094    1.8680    0.0625 H         1 <0>         0.1245
     42 H2         -0.4348    1.8565   -0.8228 H         1 <0>         0.1245
     43 H3         -0.4292    1.8445    0.9572 H         1 <0>         0.1213
     44 H4         -1.7736   -0.1961    0.9711 H         1 <0>         0.1321
     45 H5         -1.8141   -0.0501   -0.8025 H         1 <0>         0.1396
     46 H6         -2.2765   -2.3917    0.0111 H         1 <0>         0.1269
     47 H7         -0.8467   -2.2897   -1.0502 H         1 <0>         0.0859
     48 H8          1.3518   -2.3647    2.1101 H         1 <0>         0.1266
     49 H9          1.5581   -2.2718    0.3410 H         1 <0>         0.0859
     50 H10         1.8006   -0.0232    1.2886 H         1 <0>         0.1397
     51 H11         0.2445   -0.1811    2.1387 H         1 <0>         0.1321
     52 H12        -2.8569   -3.5792    0.9613 H         1 <0>         0.1212
     53 H13        -3.6857   -5.3866    2.4080 H         1 <0>         0.1262
     54 H14         0.1525   -5.6187    4.3029 H         1 <0>         0.1253
     55 H15         0.9756   -3.8170    2.8457 H         1 <0>         0.1211
     56 H16        -4.2119   -5.8881    5.1107 H         1 <0>         0.1976
     57 H17         0.7564  -10.0815    4.0589 H         1 <0>         0.1789
     58 H18        -3.7481  -10.2190    7.0262 H         1 <0>         0.4180
     59 H19        -2.6532  -11.4924    6.9793 H         1 <0>         0.4277
     60 H20        -0.2517  -11.2580    7.8105 H         1 <0>         0.1249
     61 H21         0.4641  -13.5106    8.4887 H         1 <0>         0.1383
     62 H22         0.0322  -14.8703    4.4568 H         1 <0>         0.1301
     63 H23        -0.6942  -12.6231    3.7720 H         1 <0>         0.1299
     64 H24         1.2269  -16.1566    6.2984 H         1 <0>         0.4086
     65 H25         1.4376  -17.7849    7.9624 H         1 <0>         0.3985
     66 H26         0.8012  -17.0889   10.6246 H         1 <0>         0.0699
     67 H27        -0.6044  -17.9141    9.9094 H         1 <0>         0.0698
     68 H28         2.2322  -19.0374    9.9407 H         1 <0>         0.0780
     69 H29        -0.4670  -20.2678    9.2213 H         1 <0>         0.0656
     70 H30         0.8102  -19.8190    8.0657 H         1 <0>         0.0591
     71 H31         0.8976  -22.2405    8.5927 H         1 <0>         0.0629
     72 H32         2.3636  -21.4088    9.1650 H         1 <0>         0.0619
     73 H33        -0.0707  -22.1018   10.8712 H         1 <0>         0.0625
     74 H34         1.4888  -22.9595   10.8909 H         1 <0>         0.0627
     75 H35         1.3513  -21.3201   12.7462 H         1 <0>         0.0651
     76 H36         2.6285  -20.8714   11.5906 H         1 <0>         0.0624
     77 H37         1.2639  -18.8987   12.2193 H         1 <0>         0.0664
     78 H38        -0.2021  -19.7304   11.6469 H         1 <0>         0.0669
     79 H39         0.5823   -0.2999   -0.7733 H         1 <0>         0.4244
@<TRIPOS>BOND
     1    1    2 1
     2    1   41 1
     3    1   42 1
     4    1   43 1
     5    2    7 1
     6    2    3 1
     7    2   79 1
     8    3    4 1
     9    3   44 1
    10    3   45 1
    11    4    5 1
    12    4   46 1
    13    4   47 1
    14    5    6 1
    15    5    8 1
    16    6    7 1
    17    6   48 1
    18    6   49 1
    19    7   50 1
    20    7   51 1
    21    8   13 ar
    22    8    9 ar
    23    9   10 ar
    24    9   52 1
    25   10   11 ar
    26   10   53 1
    27   11   12 ar
    28   11   14 1
    29   12   13 ar
    30   12   54 1
    31   13   55 1
    32   14   18 2
    33   14   15 1
    34   15   16 2
    35   15   56 1
    36   16   17 1
    37   17   22 1
    38   17   18 1
    39   18   19 1
    40   19   20 2
    41   20   21 1
    42   20   57 1
    43   21   22 2
    44   21   24 1
    45   22   23 1
    46   23   58 1
    47   23   59 1
    48   24   29 ar
    49   24   25 ar
    50   25   26 ar
    51   25   60 1
    52   26   27 ar
    53   26   61 1
    54   27   28 ar
    55   27   30 1
    56   28   29 ar
    57   28   62 1
    58   29   63 1
    59   30   31 am
    60   30   64 1
    61   31   32 2
    62   31   33 am
    63   33   34 1
    64   33   65 1
    65   34   35 1
    66   34   66 1
    67   34   67 1
    68   35   40 1
    69   35   36 1
    70   35   68 1
    71   36   37 1
    72   36   69 1
    73   36   70 1
    74   37   38 1
    75   37   71 1
    76   37   72 1
    77   38   39 1
    78   38   73 1
    79   38   74 1
    80   39   40 1
    81   39   75 1
    82   39   76 1
    83   40   77 1
    84   40   78 1
@<TRIPOS>MOLECULE
CHEMBL1084234__1
   78    83     0     0     0
SMALL
USER_CHARGES

@<TRIPOS>ATOM
      1 C1          0.0845    1.4936    0.0682 C.3       1 <0>         0.0244
      2 N1          0.1012    0.0248    0.0581 N.3       1 <0>        -0.5428
      3 C2         -1.2606   -0.5165   -0.0446 C.3       1 <0>         0.0385
      4 C3         -1.1900   -2.0355   -0.2343 C.3       1 <0>         0.1258
      5 N2         -0.3748   -2.6043    0.8497 N.pl3     1 <0>        -0.6326
      6 C4          0.9511   -2.0204    1.1032 C.3       1 <0>         0.1263
      7 C5          0.7962   -0.5020    1.2402 C.3       1 <0>         0.0388
      8 C6         -0.8475   -3.6720    1.6186 C.ar      1 <0>         0.2179
      9 C7         -2.1431   -4.1395    1.4339 C.ar      1 <0>        -0.1988
     10 C8         -2.6122   -5.1922    2.1912 C.ar      1 <0>        -0.0611
     11 C9         -1.7847   -5.7881    3.1429 C.ar      1 <0>        -0.0496
     12 C10        -0.4847   -5.3171    3.3258 C.ar      1 <0>        -0.0446
     13 C11        -0.0191   -4.2675    2.5621 C.ar      1 <0>        -0.1970
     14 C12        -2.2861   -6.9192    3.9585 C.2       1 <0>        -0.1977
     15 C13        -3.4932   -6.9617    4.6660 C.2       1 <0>         0.1141
     16 N3         -3.5918   -8.1227    5.2656 N.2       1 <0>        -0.3273
     17 N4         -2.4566   -8.8880    4.9771 N.pl3     1 <0>        -0.3444
     18 C14        -1.6435   -8.1468    4.1600 C.2       1 <0>         0.3074
     19 N5         -0.4795   -8.6362    3.7179 N.2       1 <0>        -0.5009
     20 C15        -0.0753   -9.8423    4.0468 C.2       1 <0>         0.2320
     21 C16        -0.8682  -10.6508    4.8794 C.2       1 <0>        -0.2589
     22 C17        -2.0769  -10.1492    5.3512 C.2       1 <0>         0.5018
     23 N6         -2.8819  -10.9110    6.1663 N.pl3     1 <0>        -0.8249
     24 C18        -0.4197  -12.0132    5.2554 C.ar      1 <0>        -0.0405
     25 C19        -0.1331  -12.3114    6.5870 C.ar      1 <0>        -0.0938
     26 C20         0.2834  -13.5793    6.9341 C.ar      1 <0>        -0.1143
     27 C21         0.4175  -14.5592    5.9583 C.ar      1 <0>         0.1721
     28 C22         0.1326  -14.2647    4.6307 C.ar      1 <0>        -0.1425
     29 C23        -0.2893  -12.9999    4.2790 C.ar      1 <0>        -0.0789
     30 N7          0.8409  -15.8454    6.3133 N.am      1 <0>        -0.6885
     31 C24         0.4729  -16.3731    7.4976 C.2       1 <0>         0.7029
     32 O1         -0.3068  -15.7749    8.2137 O.2       1 <0>        -0.5711
     33 N8          0.9690  -17.5638    7.8881 N.am      1 <0>        -0.7390
     34 C25         0.5689  -18.1374    9.1754 C.3       1 <0>         0.1407
     35 C26         1.2702  -19.4826    9.3744 C.3       1 <0>        -0.0989
     36 C27         0.7786  -20.4750    8.3188 C.3       1 <0>        -0.1149
     37 C28         1.4799  -21.8202    8.5177 C.3       1 <0>        -0.1204
     38 C29         1.1608  -22.3603    9.9132 C.3       1 <0>        -0.1222
     39 C30         1.6523  -21.3678   10.9688 C.3       1 <0>        -0.1192
     40 C31         0.9511  -20.0226   10.7699 C.3       1 <0>        -0.1121
     41 H1          1.1079    1.8686    0.0679 H         1 <0>         0.0702
     42 H2         -0.4360    1.8572   -0.8178 H         1 <0>         0.0699
     43 H3         -0.4309    1.8450    0.9621 H         1 <0>         0.0254
     44 H4         -1.8121   -0.2891    0.8676 H         1 <0>         0.0383
     45 H5         -1.7674   -0.0665   -0.8983 H         1 <0>         0.0848
     46 H6         -2.1948   -2.4563   -0.1963 H         1 <0>         0.0873
     47 H7         -0.7306   -2.2634   -1.1961 H         1 <0>         0.0689
     48 H8          1.3619   -2.4312    2.0254 H         1 <0>         0.0870
     49 H9          1.6163   -2.2468    0.2699 H         1 <0>         0.0688
     50 H10         1.7811   -0.0415    1.3183 H         1 <0>         0.0850
     51 H11         0.2160   -0.2748    2.1345 H         1 <0>         0.0383
     52 H12        -2.7834   -3.6777    0.6968 H         1 <0>         0.1208
     53 H13        -3.6193   -5.5547    2.0477 H         1 <0>         0.1188
     54 H14         0.1581   -5.7767    4.0620 H         1 <0>         0.1180
     55 H15         0.9889   -3.9053    2.7003 H         1 <0>         0.1203
     56 H16        -4.2235   -6.1673    4.7109 H         1 <0>         0.1975
     57 H17         0.8686  -10.2137    3.6760 H         1 <0>         0.1764
     58 H18        -3.7276  -10.5558    6.4818 H         1 <0>         0.4165
     59 H19        -2.6038  -11.8034    6.4256 H         1 <0>         0.4252
     60 H20        -0.2369  -11.5499    7.3458 H         1 <0>         0.1250
     61 H21         0.5058  -13.8107    7.9653 H         1 <0>         0.1367
     62 H22         0.2380  -15.0281    3.8741 H         1 <0>         0.1287
     63 H23        -0.5150  -12.7727    3.2475 H         1 <0>         0.1304
     64 H24         1.3992  -16.3568    5.7070 H         1 <0>         0.4077
     65 H25         1.5909  -18.0410    7.3168 H         1 <0>         0.3979
     66 H26         0.8515  -17.4579    9.9795 H         1 <0>         0.0695
     67 H27        -0.5110  -18.2853    9.1874 H         1 <0>         0.0693
     68 H28         2.3473  -19.3491    9.2740 H         1 <0>         0.0779
     69 H29        -0.2985  -20.6085    8.4192 H         1 <0>         0.0655
     70 H30         1.0059  -20.0903    7.3246 H         1 <0>         0.0598
     71 H31         1.1297  -22.5273    7.7657 H         1 <0>         0.0626
     72 H32         2.5570  -21.6868    8.4173 H         1 <0>         0.0618
     73 H33         0.0836  -22.4937   10.0136 H         1 <0>         0.0622
     74 H34         1.6604  -23.3186   10.0549 H         1 <0>         0.0619
     75 H35         1.4250  -21.7525   11.9630 H         1 <0>         0.0644
     76 H36         2.7295  -21.2344   10.8684 H         1 <0>         0.0623
     77 H37         1.3013  -19.3156   11.5219 H         1 <0>         0.0664
     78 H38        -0.1261  -20.1560   10.8703 H         1 <0>         0.0667
@<TRIPOS>BOND
     1    1    2 1
     2    1   41 1
     3    1   42 1
     4    1   43 1
     5    2    7 1
     6    2    3 1
     7    3    4 1
     8    3   44 1
     9    3   45 1
    10    4    5 1
    11    4   46 1
    12    4   47 1
    13    5    6 1
    14    5    8 1
    15    6    7 1
    16    6   48 1
    17    6   49 1
    18    7   50 1
    19    7   51 1
    20    8   13 ar
    21    8    9 ar
    22    9   10 ar
    23    9   52 1
    24   10   11 ar
    25   10   53 1
    26   11   12 ar
    27   11   14 1
    28   12   13 ar
    29   12   54 1
    30   13   55 1
    31   14   18 2
    32   14   15 1
    33   15   16 2
    34   15   56 1
    35   16   17 1
    36   17   22 1
    37   17   18 1
    38   18   19 1
    39   19   20 2
    40   20   21 1
    41   20   57 1
    42   21   22 2
    43   21   24 1
    44   22   23 1
    45   23   58 1
    46   23   59 1
    47   24   29 ar
    48   24   25 ar
    49   25   26 ar
    50   25   60 1
    51   26   27 ar
    52   26   61 1
    53   27   28 ar
    54   27   30 1
    55   28   29 ar
    56   28   62 1
    57   29   63 1
    58   30   31 am
    59   30   64 1
    60   31   32 2
    61   31   33 am
    62   33   34 1
    63   33   65 1
    64   34   35 1
    65   34   66 1
    66   34   67 1
    67   35   40 1
    68   35   36 1
    69   35   68 1
    70   36   37 1
    71   36   69 1
    72   36   70 1
    73   37   38 1
    74   37   71 1
    75   37   72 1
    76   38   39 1
    77   38   73 1
    78   38   74 1
    79   39   40 1
    80   39   75 1
    81   39   76 1
    82   40   77 1
    83   40   78 1
@<TRIPOS>MOLECULE
CHEMBL1082693
   79    84     0     0     0
SMALL
USER_CHARGES

@<TRIPOS>ATOM
      1 C1          0.2842    1.7842    0.8178 C.3       1 <0>        -0.0467
      2 N1          0.3932    0.3208    0.7499 N.4       1 <0>        -0.3837
      3 C2         -0.9281   -0.2540    0.4671 C.3       1 <0>        -0.0232
      4 C3         -0.7959   -1.7693    0.2826 C.3       1 <0>         0.0995
      5 N2         -0.1325   -2.3277    1.4710 N.pl3     1 <0>        -0.6461
      6 C4          1.1200   -1.7028    1.9236 C.3       1 <0>         0.1002
      7 C5          0.8973   -0.1906    2.0306 C.3       1 <0>        -0.0228
      8 C6         -0.6772   -3.4209    2.1512 C.ar      1 <0>         0.1869
      9 C7         -1.9172   -3.9237    1.7757 C.ar      1 <0>        -0.1817
     10 C8         -2.4570   -5.0016    2.4453 C.ar      1 <0>        -0.0672
     11 C9         -1.7572   -5.5876    3.4999 C.ar      1 <0>        -0.0115
     12 C10        -0.5127   -5.0812    3.8744 C.ar      1 <0>        -0.0506
     13 C11         0.0248   -4.0064    3.1980 C.ar      1 <0>        -0.1798
     14 C12        -2.3350   -6.7458    4.2216 C.2       1 <0>        -0.2262
     15 C13        -3.6296   -6.8351    4.7465 C.2       1 <0>         0.1195
     16 N3         -3.7769   -8.0079    5.3124 N.2       1 <0>        -0.3239
     17 N4         -2.5883   -8.7345    5.1826 N.pl3     1 <0>        -0.3430
     18 C14        -1.6897   -7.9568    4.5001 C.2       1 <0>         0.3201
     19 N5         -0.4592   -8.4044    4.2257 N.2       1 <0>        -0.5108
     20 C15        -0.0687   -9.6031    4.5959 C.2       1 <0>         0.2388
     21 C16        -0.9475  -10.4477    5.2959 C.2       1 <0>        -0.2505
     22 C17        -2.2269   -9.9897    5.5934 C.2       1 <0>         0.5032
     23 N6         -3.1165  -10.7878    6.2748 N.pl3     1 <0>        -0.8211
     24 C18        -0.5150  -11.8019    5.7175 C.ar      1 <0>        -0.0485
     25 C19        -0.4143  -12.1123    7.0731 C.ar      1 <0>        -0.0940
     26 C20        -0.0124  -13.3726    7.4625 C.ar      1 <0>        -0.1424
     27 C21         0.2921  -14.3327    6.5054 C.ar      1 <0>         0.1733
     28 C22         0.1925  -14.0260    5.1539 C.ar      1 <0>        -0.1134
     29 C23        -0.2140  -12.7688    4.7591 C.ar      1 <0>        -0.0791
     30 N7          0.7003  -15.6111    6.9034 N.am      1 <0>        -0.6883
     31 C24         0.3260  -16.6909    6.1890 C.2       1 <0>         0.7064
     32 O1         -0.2965  -16.5493    5.1542 O.2       1 <0>        -0.5704
     33 N8          0.6416  -17.9277    6.6217 N.am      1 <0>        -0.6214
     34 C25         1.3916  -18.0984    7.8685 C.3       1 <0>         0.0716
     35 C26         0.2347  -19.1015    5.8452 C.3       1 <0>         0.1554
     36 C27        -0.6689  -19.9912    6.7012 C.3       1 <0>        -0.1267
     37 C28        -1.0938  -21.2170    5.8903 C.3       1 <0>        -0.1177
     38 C29         0.1479  -22.0057    5.4697 C.3       1 <0>        -0.1227
     39 C30         1.0515  -21.1160    4.6136 C.3       1 <0>        -0.1174
     40 C31         1.4765  -19.8902    5.4246 C.3       1 <0>        -0.1280
     41 H1          1.2659    2.2127    1.0197 H         1 <0>         0.1245
     42 H2         -0.0900    2.1652   -0.1325 H         1 <0>         0.1245
     43 H3         -0.4041    2.0606    1.6164 H         1 <0>         0.1212
     44 H4         -1.6004   -0.0465    1.2996 H         1 <0>         0.1320
     45 H5         -1.3299    0.1894   -0.4440 H         1 <0>         0.1397
     46 H6         -1.7856   -2.2127    0.1733 H         1 <0>         0.1269
     47 H7         -0.1973   -1.9795   -0.6037 H         1 <0>         0.0860
     48 H8          1.3969   -2.1023    2.8992 H         1 <0>         0.1266
     49 H9          1.9121   -1.9063    1.2029 H         1 <0>         0.0859
     50 H10         1.8406    0.2995    2.2717 H         1 <0>         0.1397
     51 H11         0.1698    0.0149    2.8158 H         1 <0>         0.1320
     52 H12        -2.4587   -3.4696    0.9590 H         1 <0>         0.1213
     53 H13        -3.4210   -5.3915    2.1535 H         1 <0>         0.1262
     54 H14         0.0314   -5.5331    4.6906 H         1 <0>         0.1253
     55 H15         0.9904   -3.6166    3.4846 H         1 <0>         0.1211
     56 H16        -4.3835   -6.0636    4.6942 H         1 <0>         0.1976
     57 H17         0.9301   -9.9404    4.3614 H         1 <0>         0.1790
     58 H18        -4.0097  -10.4628    6.4686 H         1 <0>         0.4178
     59 H19        -2.8506  -11.6755    6.5616 H         1 <0>         0.4269
     60 H20        -0.6505  -11.3663    7.8174 H         1 <0>         0.1257
     61 H21         0.0662  -13.6135    8.5123 H         1 <0>         0.1287
     62 H22         0.4301  -14.7739    4.4120 H         1 <0>         0.1445
     63 H23        -0.2955  -12.5323    3.7085 H         1 <0>         0.1288
     64 H24         1.2526  -15.7199    7.6934 H         1 <0>         0.4080
     65 H25         0.6952  -18.1822    8.7029 H         1 <0>         0.0605
     66 H26         1.9965  -19.0031    7.8078 H         1 <0>         0.0819
     67 H27         2.0412  -17.2367    8.0226 H         1 <0>         0.0654
     68 H28        -0.3089  -18.7790    4.9571 H         1 <0>         0.1046
     69 H29        -0.1252  -20.3136    7.5893 H         1 <0>         0.0655
     70 H30        -1.5535  -19.4292    7.0009 H         1 <0>         0.0649
     71 H31        -1.7375  -21.8508    6.5001 H         1 <0>         0.0674
     72 H32        -1.6374  -20.8945    5.0022 H         1 <0>         0.0655
     73 H33         0.6916  -22.3282    6.3577 H         1 <0>         0.0629
     74 H34        -0.1548  -22.8790    4.8919 H         1 <0>         0.0658
     75 H35         1.9362  -21.6780    4.3140 H         1 <0>         0.0676
     76 H36         0.5079  -20.7936    3.7256 H         1 <0>         0.0657
     77 H37         2.1202  -19.2564    4.8147 H         1 <0>         0.0659
     78 H38         2.0201  -20.2127    6.3126 H         1 <0>         0.0660
     79 H39         1.0328    0.0663    0.0122 H         1 <0>         0.4244
@<TRIPOS>BOND
     1    1    2 1
     2    1   41 1
     3    1   42 1
     4    1   43 1
     5    2    7 1
     6    2    3 1
     7    2   79 1
     8    3    4 1
     9    3   44 1
    10    3   45 1
    11    4    5 1
    12    4   46 1
    13    4   47 1
    14    5    6 1
    15    5    8 1
    16    6    7 1
    17    6   48 1
    18    6   49 1
    19    7   50 1
    20    7   51 1
    21    8   13 ar
    22    8    9 ar
    23    9   10 ar
    24    9   52 1
    25   10   11 ar
    26   10   53 1
    27   11   12 ar
    28   11   14 1
    29   12   13 ar
    30   12   54 1
    31   13   55 1
    32   14   18 2
    33   14   15 1
    34   15   16 2
    35   15   56 1
    36   16   17 1
    37   17   22 1
    38   17   18 1
    39   18   19 1
    40   19   20 2
    41   20   21 1
    42   20   57 1
    43   21   22 2
    44   21   24 1
    45   22   23 1
    46   23   58 1
    47   23   59 1
    48   24   29 ar
    49   24   25 ar
    50   25   26 ar
    51   25   60 1
    52   26   27 ar
    53   26   61 1
    54   27   28 ar
    55   27   30 1
    56   28   29 ar
    57   28   62 1
    58   29   63 1
    59   30   31 am
    60   30   64 1
    61   31   32 2
    62   31   33 am
    63   33   34 1
    64   33   35 1
    65   34   65 1
    66   34   66 1
    67   34   67 1
    68   35   40 1
    69   35   36 1
    70   35   68 1
    71   36   37 1
    72   36   69 1
    73   36   70 1
    74   37   38 1
    75   37   71 1
    76   37   72 1
    77   38   39 1
    78   38   73 1
    79   38   74 1
    80   39   40 1
    81   39   75 1
    82   39   76 1
    83   40   77 1
    84   40   78 1
@<TRIPOS>MOLECULE
CHEMBL1082693__1
   78    83     0     0     0
SMALL
USER_CHARGES

@<TRIPOS>ATOM
      1 C1          0.2513    1.7615    0.8406 C.3       1 <0>         0.0245
      2 N1          0.3531    0.2978    0.7689 N.3       1 <0>        -0.5428
      3 C2         -0.9345   -0.3018    0.3944 C.3       1 <0>         0.0385
      4 C3         -0.7444   -1.8033    0.1540 C.3       1 <0>         0.1258
      5 N2         -0.1077   -2.3898    1.3431 N.pl3     1 <0>        -0.6326
      6 C4          1.1151   -1.7575    1.8609 C.3       1 <0>         0.1264
      7 C5          0.8518   -0.2578    2.0340 C.3       1 <0>         0.0389
      8 C6         -0.6500   -3.5188    1.9643 C.ar      1 <0>         0.2179
      9 C7         -1.8654   -4.0332    1.5291 C.ar      1 <0>        -0.1987
     10 C8         -2.4030   -5.1464    2.1403 C.ar      1 <0>        -0.0611
     11 C9         -1.7254   -5.7562    3.1959 C.ar      1 <0>        -0.0497
     12 C10        -0.5055   -5.2380    3.6304 C.ar      1 <0>        -0.0446
     13 C11         0.0299   -4.1278    3.0121 C.ar      1 <0>        -0.1970
     14 C12        -2.3008   -6.9523    3.8550 C.2       1 <0>        -0.1975
     15 C13        -3.6097   -7.0883    4.3323 C.2       1 <0>         0.1141
     16 N3         -3.7494   -8.2841    4.8498 N.2       1 <0>        -0.3278
     17 N4         -2.5413   -8.9802    4.7338 N.pl3     1 <0>        -0.3441
     18 C14        -1.6383   -8.1590    4.1109 C.2       1 <0>         0.3074
     19 N5         -0.3897   -8.5702    3.8621 N.2       1 <0>        -0.5003
     20 C15         0.0149   -9.7732    4.2014 C.2       1 <0>         0.2321
     21 C16        -0.8674  -10.6615    4.8401 C.2       1 <0>        -0.2575
     22 C17        -2.1658  -10.2419    5.1107 C.2       1 <0>         0.5009
     23 N6         -3.0595  -11.0833    5.7322 N.pl3     1 <0>        -0.8256
     24 C18        -0.4191  -12.0211    5.2265 C.ar      1 <0>        -0.0396
     25 C19        -0.3563  -12.3795    6.5725 C.ar      1 <0>        -0.0954
     26 C20         0.0605  -13.6446    6.9291 C.ar      1 <0>        -0.1423
     27 C21         0.4177  -14.5619    5.9485 C.ar      1 <0>         0.1676
     28 C22         0.3560  -14.2073    4.6065 C.ar      1 <0>        -0.1130
     29 C23        -0.0652  -12.9452    4.2443 C.ar      1 <0>        -0.0805
     30 N7          0.8409  -15.8454    6.3133 N.am      1 <0>        -0.6875
     31 C24         0.5146  -16.9055    5.5478 C.2       1 <0>         0.7061
     32 O1         -0.0763  -16.7387    4.4983 O.2       1 <0>        -0.5699
     33 N8          0.8432  -18.1506    5.9456 N.am      1 <0>        -0.6227
     34 C25         1.5551  -18.3516    7.2101 C.3       1 <0>         0.0724
     35 C26         0.4884  -19.3030    5.1135 C.3       1 <0>         0.1556
     36 C27        -0.4230  -20.2427    5.9054 C.3       1 <0>        -0.1266
     37 C28        -0.7934  -21.4462    5.0364 C.3       1 <0>        -0.1177
     38 C29         0.4788  -22.1925    4.6297 C.3       1 <0>        -0.1222
     39 C30         1.3902  -21.2528    3.8377 C.3       1 <0>        -0.1174
     40 C31         1.7607  -20.0493    4.7068 C.3       1 <0>        -0.1281
     41 H1          1.2349    2.1846    1.0445 H         1 <0>         0.0702
     42 H2         -0.1202    2.1468   -0.1090 H         1 <0>         0.0699
     43 H3         -0.4364    2.0391    1.6394 H         1 <0>         0.0254
     44 H4         -1.6540   -0.1505    1.1991 H         1 <0>         0.0382
     45 H5         -1.3034    0.1686   -0.5171 H         1 <0>         0.0848
     46 H6         -1.7139   -2.2732   -0.0115 H         1 <0>         0.0873
     47 H7         -0.1065   -1.9569   -0.7163 H         1 <0>         0.0689
     48 H8          1.3751   -2.1971    2.8238 H         1 <0>         0.0869
     49 H9          1.9318   -1.9067    1.1546 H         1 <0>         0.0688
     50 H10         1.7784    0.2445    2.3117 H         1 <0>         0.0850
     51 H11         0.1074   -0.1071    2.8159 H         1 <0>         0.0382
     52 H12        -2.3896   -3.5606    0.7116 H         1 <0>         0.1208
     53 H13        -3.3479   -5.5453    1.8021 H         1 <0>         0.1188
     54 H14         0.0213   -5.7083    4.4476 H         1 <0>         0.1180
     55 H15         0.9766   -3.7287    3.3452 H         1 <0>         0.1203
     56 H16        -4.3785   -6.3314    4.2827 H         1 <0>         0.1975
     57 H17         1.0282  -10.0806    3.9887 H         1 <0>         0.1766
     58 H18        -3.9656  -10.7846    5.9073 H         1 <0>         0.4163
     59 H19        -2.7835  -11.9752    5.9952 H         1 <0>         0.4243
     60 H20        -0.6334  -11.6667    7.3351 H         1 <0>         0.1258
     61 H21         0.1097  -13.9226    7.9716 H         1 <0>         0.1271
     62 H22         0.6345  -14.9221    3.8463 H         1 <0>         0.1432
     63 H23        -0.1173  -12.6716    3.2008 H         1 <0>         0.1293
     64 H24         1.3690  -15.9717    7.1171 H         1 <0>         0.4071
     65 H25         0.8335  -18.4810    8.0167 H         1 <0>         0.0596
     66 H26         2.1816  -19.2406    7.1370 H         1 <0>         0.0807
     67 H27         2.1799  -17.4828    7.4174 H         1 <0>         0.0657
     68 H28        -0.0325  -18.9592    4.2198 H         1 <0>         0.1047
     69 H29         0.0980  -20.5864    6.7990 H         1 <0>         0.0650
     70 H30        -1.3293  -19.7110    6.1952 H         1 <0>         0.0651
     71 H31        -1.4427  -22.1156    5.6006 H         1 <0>         0.0667
     72 H32        -1.3144  -21.1024    4.1428 H         1 <0>         0.0656
     73 H33         0.9997  -22.5362    5.5233 H         1 <0>         0.0624
     74 H34         0.2148  -23.0499    4.0106 H         1 <0>         0.0651
     75 H35         2.2965  -21.7845    3.5480 H         1 <0>         0.0670
     76 H36         0.8692  -20.9091    2.9441 H         1 <0>         0.0659
     77 H37         2.4100  -19.3798    4.1425 H         1 <0>         0.0662
     78 H38         2.2816  -20.3930    5.6004 H         1 <0>         0.0656
@<TRIPOS>BOND
     1    1    2 1
     2    1   41 1
     3    1   42 1
     4    1   43 1
     5    2    7 1
     6    2    3 1
     7    3    4 1
     8    3   44 1
     9    3   45 1
    10    4    5 1
    11    4   46 1
    12    4   47 1
    13    5    6 1
    14    5    8 1
    15    6    7 1
    16    6   48 1
    17    6   49 1
    18    7   50 1
    19    7   51 1
    20    8   13 ar
    21    8    9 ar
    22    9   10 ar
    23    9   52 1
    24   10   11 ar
    25   10   53 1
    26   11   12 ar
    27   11   14 1
    28   12   13 ar
    29   12   54 1
    30   13   55 1
    31   14   18 2
    32   14   15 1
    33   15   16 2
    34   15   56 1
    35   16   17 1
    36   17   22 1
    37   17   18 1
    38   18   19 1
    39   19   20 2
    40   20   21 1
    41   20   57 1
    42   21   22 2
    43   21   24 1
    44   22   23 1
    45   23   58 1
    46   23   59 1
    47   24   29 ar
    48   24   25 ar
    49   25   26 ar
    50   25   60 1
    51   26   27 ar
    52   26   61 1
    53   27   28 ar
    54   27   30 1
    55   28   29 ar
    56   28   62 1
    57   29   63 1
    58   30   31 am
    59   30   64 1
    60   31   32 2
    61   31   33 am
    62   33   34 1
    63   33   35 1
    64   34   65 1
    65   34   66 1
    66   34   67 1
    67   35   40 1
    68   35   36 1
    69   35   68 1
    70   36   37 1
    71   36   69 1
    72   36   70 1
    73   37   38 1
    74   37   71 1
    75   37   72 1
    76   38   39 1
    77   38   73 1
    78   38   74 1
    79   39   40 1
    80   39   75 1
    81   39   76 1
    82   40   77 1
    83   40   78 1
@<TRIPOS>MOLECULE
CHEMBL187120
   43    46     0     0     0
SMALL
USER_CHARGES

@<TRIPOS>ATOM
      1 C1         -0.2788    1.1665   -0.1953 C.3       1 <0>        -0.1106
      2 C2         -0.1286   -0.3178    0.0177 C.ar      1 <0>        -0.1026
      3 C3         -0.1284   -1.1749   -1.0635 C.ar      1 <0>        -0.0974
      4 C4          0.0094   -2.5379   -0.8705 C.ar      1 <0>        -0.1183
      5 C5          0.1483   -3.0524    0.4067 C.ar      1 <0>        -0.1005
      6 C6          0.1503   -2.2075    1.4978 C.ar      1 <0>        -0.0465
      7 C7          0.0164   -0.8284    1.3095 C.ar      1 <0>         0.1215
      8 N1          0.0226    0.0158    2.3852 N.2       1 <0>        -0.4872
      9 C8         -1.1134    0.4128    2.9163 C.2       1 <0>         0.5105
     10 N2         -2.3786    0.1183    2.3889 N.pl3     1 <0>        -0.7677
     11 C9         -3.4108   -0.4057    3.2678 C.3       1 <0>         0.1555
     12 C10        -3.4648    0.2216    4.6617 C.3       1 <0>         0.3241
     13 N3         -2.3616    1.1333    4.9300 N.pl3     1 <0>        -0.4547
     14 C11        -1.2199    1.2200    4.1469 C.2       1 <0>        -0.0165
     15 C12        -0.3962    2.1052    4.7323 C.2       1 <0>         0.0653
     16 N4         -1.0240    2.5726    5.8211 N.2       1 <0>        -0.4909
     17 C13        -2.1971    2.0107    5.9303 C.2       1 <0>         0.2495
     18 C14        -3.2006    2.2915    7.0191 C.3       1 <0>        -0.0776
     19 N5         -3.3529   -0.9450    5.5597 N.pl3     1 <0>        -0.5508
     20 N6         -3.1832   -2.0887    4.7812 N.2       1 <0>        -0.2068
     21 C15        -3.1989   -1.8786    3.5276 C.2       1 <0>         0.0402
     22 C16        -3.0323   -2.9348    2.4656 C.3       1 <0>        -0.0769
     23 C17        -3.4106   -0.9069    7.0231 C.3       1 <0>         0.1335
     24 Cl1         0.3240   -2.8545    3.0994 Cl        1 <0>        -0.0541
     25 H1          0.7055    1.6164   -0.3248 H         1 <0>         0.0776
     26 H2         -0.8807    1.3467   -1.0860 H         1 <0>         0.0713
     27 H3         -0.7699    1.6100    0.6709 H         1 <0>         0.0597
     28 H4         -0.2363   -0.7807   -2.0632 H         1 <0>         0.1305
     29 H5          0.0081   -3.2038   -1.7208 H         1 <0>         0.1329
     30 H6          0.2550   -4.1176    0.5499 H         1 <0>         0.1350
     31 H7         -4.3833   -0.2670    2.7953 H         1 <0>         0.1229
     32 H8         -4.4173    0.7307    4.8086 H         1 <0>         0.1248
     33 H9          0.5883    2.3877    4.3898 H         1 <0>         0.1839
     34 H10        -2.9547    1.7002    7.9011 H         1 <0>         0.0892
     35 H11        -3.1741    3.3512    7.2731 H         1 <0>         0.0980
     36 H12        -4.1987    2.0263    6.6705 H         1 <0>         0.0743
     37 H13        -1.9708   -3.1064    2.2872 H         1 <0>         0.0841
     38 H14        -3.4993   -3.8616    2.7986 H         1 <0>         0.0799
     39 H15        -3.5064   -2.6001    1.5429 H         1 <0>         0.0759
     40 H16        -4.4513   -0.9287    7.3464 H         1 <0>         0.0566
     41 H17        -2.8855   -1.7711    7.4300 H         1 <0>         0.0783
     42 H18        -2.9378    0.0074    7.3817 H         1 <0>         0.0712
     43 H19        -2.5632    0.2630    1.4477 H         1 <0>         0.4132
@<TRIPOS>BOND
     1    1    2 1
     2    1   25 1
     3    1   26 1
     4    1   27 1
     5    2    7 ar
     6    2    3 ar
     7    3    4 ar
     8    3   28 1
     9    4    5 ar
    10    4   29 1
    11    5    6 ar
    12    5   30 1
    13    6    7 ar
    14    6   24 1
    15    7    8 1
    16    8    9 2
    17    9   14 1
    18    9   10 1
    19   10   11 1
    20   10   43 1
    21   11   21 1
    22   11   12 1
    23   11   31 1
    24   12   13 1
    25   12   19 1
    26   12   32 1
    27   13   17 1
    28   13   14 1
    29   14   15 2
    30   15   16 1
    31   15   33 1
    32   16   17 2
    33   17   18 1
    34   18   34 1
    35   18   35 1
    36   18   36 1
    37   19   20 1
    38   19   23 1
    39   20   21 2
    40   21   22 1
    41   22   37 1
    42   22   38 1
    43   22   39 1
    44   23   40 1
    45   23   41 1
    46   23   42 1
@<TRIPOS>MOLECULE
CHEMBL187120__1
   44    47     0     0     0
SMALL
USER_CHARGES

@<TRIPOS>ATOM
      1 C1         -0.2787    1.1666   -0.1953 C.3       1 <0>        -0.1138
      2 C2         -0.1286   -0.3177    0.0177 C.ar      1 <0>        -0.0894
      3 C3         -0.1283   -1.1748   -1.0635 C.ar      1 <0>        -0.0955
      4 C4          0.0094   -2.5378   -0.8706 C.ar      1 <0>        -0.1002
      5 C5          0.1484   -3.0523    0.4067 C.ar      1 <0>        -0.0986
      6 C6          0.1504   -2.2075    1.4978 C.ar      1 <0>        -0.0371
      7 C7          0.0164   -0.8283    1.3095 C.ar      1 <0>         0.0886
      8 N1          0.0226    0.0158    2.3853 N.2       1 <0>        -0.4333
      9 C8         -1.1134    0.4129    2.9163 C.2       1 <0>         0.4657
     10 N2         -2.3786    0.1184    2.3889 N.pl3     1 <0>        -0.7598
     11 C9         -3.4108   -0.4057    3.2678 C.3       1 <0>         0.1488
     12 C10        -3.4648    0.2216    4.6617 C.3       1 <0>         0.3120
     13 N3         -2.3616    1.1334    4.9300 N.pl3     1 <0>        -0.4082
     14 C11        -1.2198    1.2201    4.1469 C.2       1 <0>         0.0733
     15 C12        -0.3962    2.1052    4.7323 C.2       1 <0>         0.0763
     16 N4         -1.0240    2.5726    5.8211 N.pl3     1 <0>        -0.4801
     17 C13        -2.1971    2.0107    5.9303 C.cat     1 <0>         0.3437
     18 C14        -3.2006    2.2915    7.0191 C.3       1 <0>        -0.1215
     19 N5         -3.3529   -0.9450    5.5597 N.pl3     1 <0>        -0.5464
     20 N6         -3.1832   -2.0887    4.7812 N.2       1 <0>        -0.2023
     21 C15        -3.1988   -1.8785    3.5275 C.2       1 <0>         0.0625
     22 C16        -3.0323   -2.9347    2.4655 C.3       1 <0>        -0.0857
     23 C17        -3.4106   -0.9069    7.0231 C.3       1 <0>         0.1269
     24 Cl1         0.3241   -2.8545    3.0993 Cl        1 <0>        -0.0512
     25 H1          0.7056    1.6165   -0.3248 H         1 <0>         0.0826
     26 H2         -0.8806    1.3468   -1.0860 H         1 <0>         0.0785
     27 H3         -0.7698    1.6101    0.6709 H         1 <0>         0.0551
     28 H4         -0.2362   -0.7806   -2.0632 H         1 <0>         0.1381
     29 H5          0.0082   -3.2036   -1.7209 H         1 <0>         0.1408
     30 H6          0.2551   -4.1175    0.5498 H         1 <0>         0.1423
     31 H7         -4.3832   -0.2670    2.7952 H         1 <0>         0.1449
     32 H8         -4.4173    0.7308    4.8086 H         1 <0>         0.1535
     33 H9          0.5883    2.3877    4.3898 H         1 <0>         0.2365
     34 H10        -2.9547    1.7002    7.9011 H         1 <0>         0.1275
     35 H11        -3.1741    3.3512    7.2731 H         1 <0>         0.1263
     36 H12        -4.1987    2.0263    6.6705 H         1 <0>         0.1166
     37 H13        -1.9708   -3.1064    2.2871 H         1 <0>         0.0888
     38 H14        -3.4993   -3.8616    2.7985 H         1 <0>         0.0900
     39 H15        -3.5063   -2.6001    1.5428 H         1 <0>         0.0843
     40 H16        -4.4513   -0.9287    7.3464 H         1 <0>         0.0716
     41 H17        -2.8855   -1.7711    7.4300 H         1 <0>         0.0918
     42 H18        -2.9378    0.0074    7.3816 H         1 <0>         0.0624
     43 H19        -2.5631    0.2631    1.4477 H         1 <0>         0.4261
     44 H20        -0.6638    3.2344    6.4320 H         1 <0>         0.4676
@<TRIPOS>BOND
     1    1    2 1
     2    1   25 1
     3    1   26 1
     4    1   27 1
     5    2    7 ar
     6    2    3 ar
     7    3    4 ar
     8    3   28 1
     9    4    5 ar
    10    4   29 1
    11    5    6 ar
    12    5   30 1
    13    6    7 ar
    14    6   24 1
    15    7    8 1
    16    8    9 2
    17    9   14 1
    18    9   10 1
    19   10   11 1
    20   10   43 1
    21   11   21 1
    22   11   12 1
    23   11   31 1
    24   12   13 1
    25   12   19 1
    26   12   32 1
    27   13   17 1
    28   13   14 1
    29   14   15 2
    30   15   16 1
    31   15   33 1
    32   16   17 2
    33   16   44 1
    34   17   18 1
    35   18   34 1
    36   18   35 1
    37   18   36 1
    38   19   20 1
    39   19   23 1
    40   20   21 2
    41   21   22 1
    42   22   37 1
    43   22   38 1
    44   22   39 1
    45   23   40 1
    46   23   41 1
    47   23   42 1
@<TRIPOS>MOLECULE
CHEMBL187120__2
   43    46     0     0     0
SMALL
USER_CHARGES

@<TRIPOS>ATOM
      1 C1          0.1599    1.4774    0.1676 C.3       1 <0>        -0.1056
      2 C2          0.2778   -0.0245    0.2067 C.ar      1 <0>        -0.0884
      3 C3          0.3283   -0.7449   -0.9690 C.ar      1 <0>        -0.0992
      4 C4          0.4366   -2.1237   -0.9357 C.ar      1 <0>        -0.1189
      5 C5          0.4956   -2.7911    0.2754 C.ar      1 <0>        -0.1002
      6 C6          0.4467   -2.0841    1.4594 C.ar      1 <0>        -0.0599
      7 C7          0.3422   -0.6899    1.4329 C.ar      1 <0>         0.1203
      8 N1          0.2984    0.0182    2.6019 N.2       1 <0>        -0.5064
      9 C8         -0.8583    0.2699    3.1755 C.2       1 <0>         0.5106
     10 N2         -2.0912   -0.1710    2.6339 N.pl3     1 <0>        -0.7531
     11 C9         -3.1954    0.7005    2.9655 C.3       1 <0>         0.1300
     12 C10        -3.3949    0.6632    4.5150 C.3       1 <0>         0.3215
     13 N3         -2.2024    1.2446    5.0735 N.pl3     1 <0>        -0.4491
     14 C11        -0.9726    1.0283    4.4370 C.2       1 <0>        -0.0368
     15 C12        -0.0376    1.6362    5.1943 C.2       1 <0>         0.0941
     16 N4         -0.6629    2.2117    6.2298 N.2       1 <0>        -0.4961
     17 C13        -1.9535    1.9904    6.1481 C.2       1 <0>         0.2690
     18 C14        -2.9881    2.4869    7.1249 C.3       1 <0>        -0.0992
     19 N5         -4.6743    1.3631    4.5586 N.pl3     1 <0>        -0.5707
     20 N6         -5.3809    0.8268    3.4466 N.2       1 <0>        -0.1982
     21 C15        -4.5840    0.4169    2.5065 C.2       1 <0>         0.0766
     22 C16        -4.9866   -0.2220    1.2023 C.3       1 <0>        -0.0805
     23 C17        -5.1237    2.3749    5.5180 C.3       1 <0>         0.1327
     24 Cl1         0.5203   -2.9227    2.9777 Cl        1 <0>        -0.0610
     25 H1          1.1559    1.9196    0.1479 H         1 <0>         0.0756
     26 H2         -0.3878    1.7757   -0.7263 H         1 <0>         0.0677
     27 H3         -0.3738    1.8230    1.0529 H         1 <0>         0.0610
     28 H4          0.2827   -0.2310   -1.9178 H         1 <0>         0.1305
     29 H5          0.4749   -2.6821   -1.8593 H         1 <0>         0.1327
     30 H6          0.5798   -3.8677    0.2937 H         1 <0>         0.1342
     31 H7         -2.9348    1.7209    2.6843 H         1 <0>         0.0944
     32 H8         -3.5076   -0.3653    4.8577 H         1 <0>         0.1026
     33 H9          1.0248    1.6555    5.0011 H         1 <0>         0.1901
     34 H10        -3.6086    1.6527    7.4522 H         1 <0>         0.0837
     35 H11        -2.4903    2.9299    7.9875 H         1 <0>         0.1003
     36 H12        -3.6137    3.2372    6.6414 H         1 <0>         0.0987
     37 H13        -5.0400   -1.3033    1.3287 H         1 <0>         0.0880
     38 H14        -5.9623    0.1569    0.8980 H         1 <0>         0.0880
     39 H15        -4.2486    0.0184    0.4369 H         1 <0>         0.0862
     40 H16        -4.5138    3.2721    5.4123 H         1 <0>         0.0591
     41 H17        -6.1679    2.6205    5.3246 H         1 <0>         0.0862
     42 H18        -5.0238    1.9849    6.5309 H         1 <0>         0.0731
     43 H19        -2.1843   -0.9734    2.0968 H         1 <0>         0.4164
@<TRIPOS>BOND
     1    1    2 1
     2    1   25 1
     3    1   26 1
     4    1   27 1
     5    2    7 ar
     6    2    3 ar
     7    3    4 ar
     8    3   28 1
     9    4    5 ar
    10    4   29 1
    11    5    6 ar
    12    5   30 1
    13    6    7 ar
    14    6   24 1
    15    7    8 1
    16    8    9 2
    17    9   14 1
    18    9   10 1
    19   10   11 1
    20   10   43 1
    21   11   21 1
    22   11   12 1
    23   11   31 1
    24   12   13 1
    25   12   19 1
    26   12   32 1
    27   13   17 1
    28   13   14 1
    29   14   15 2
    30   15   16 1
    31   15   33 1
    32   16   17 2
    33   17   18 1
    34   18   34 1
    35   18   35 1
    36   18   36 1
    37   19   20 1
    38   19   23 1
    39   20   21 2
    40   21   22 1
    41   22   37 1
    42   22   38 1
    43   22   39 1
    44   23   40 1
    45   23   41 1
    46   23   42 1
@<TRIPOS>MOLECULE
CHEMBL187120__3
   44    47     0     0     0
SMALL
USER_CHARGES

@<TRIPOS>ATOM
      1 C1          0.1599    1.4773    0.1676 C.3       1 <0>        -0.1088
      2 C2          0.2779   -0.0245    0.2067 C.ar      1 <0>        -0.0750
      3 C3          0.3283   -0.7449   -0.9689 C.ar      1 <0>        -0.0978
      4 C4          0.4367   -2.1237   -0.9356 C.ar      1 <0>        -0.1000
      5 C5          0.4957   -2.7911    0.2754 C.ar      1 <0>        -0.0981
      6 C6          0.4468   -2.0841    1.4595 C.ar      1 <0>        -0.0482
      7 C7          0.3422   -0.6899    1.4330 C.ar      1 <0>         0.0854
      8 N1          0.2984    0.0182    2.6020 N.2       1 <0>        -0.4521
      9 C8         -0.8582    0.2699    3.1755 C.2       1 <0>         0.4669
     10 N2         -2.0911   -0.1711    2.6340 N.pl3     1 <0>        -0.7442
     11 C9         -3.1954    0.7005    2.9656 C.3       1 <0>         0.1296
     12 C10        -3.3948    0.6632    4.5150 C.3       1 <0>         0.3053
     13 N3         -2.2024    1.2446    5.0735 N.pl3     1 <0>        -0.4016
     14 C11        -0.9726    1.0283    4.4370 C.2       1 <0>         0.0606
     15 C12        -0.0375    1.6362    5.1943 C.2       1 <0>         0.1025
     16 N4         -0.6629    2.2117    6.2298 N.pl3     1 <0>        -0.4874
     17 C13        -1.9535    1.9904    6.1481 C.cat     1 <0>         0.3620
     18 C14        -2.9881    2.4869    7.1249 C.3       1 <0>        -0.1417
     19 N5         -4.6742    1.3631    4.5586 N.pl3     1 <0>        -0.5708
     20 N6         -5.3809    0.8267    3.4467 N.2       1 <0>        -0.1866
     21 C15        -4.5840    0.4168    2.5065 C.2       1 <0>         0.0956
     22 C16        -4.9865   -0.2221    1.2023 C.3       1 <0>        -0.0890
     23 C17        -5.1237    2.3749    5.5180 C.3       1 <0>         0.1235
     24 Cl1         0.5204   -2.9227    2.9777 Cl        1 <0>        -0.0568
     25 H1          1.1560    1.9197    0.1480 H         1 <0>         0.0805
     26 H2         -0.3878    1.7756   -0.7263 H         1 <0>         0.0750
     27 H3         -0.3737    1.8230    1.0530 H         1 <0>         0.0558
     28 H4          0.2828   -0.2311   -1.9177 H         1 <0>         0.1380
     29 H5          0.4750   -2.6821   -1.8593 H         1 <0>         0.1406
     30 H6          0.5799   -3.8677    0.2938 H         1 <0>         0.1417
     31 H7         -2.9348    1.7208    2.6843 H         1 <0>         0.1047
     32 H8         -3.5075   -0.3654    4.8578 H         1 <0>         0.1369
     33 H9          1.0249    1.6555    5.0011 H         1 <0>         0.2424
     34 H10        -3.6086    1.6527    7.4523 H         1 <0>         0.1267
     35 H11        -2.4903    2.9299    7.9875 H         1 <0>         0.1240
     36 H12        -3.6137    3.2372    6.6414 H         1 <0>         0.1383
     37 H13        -5.0399   -1.3034    1.3287 H         1 <0>         0.0962
     38 H14        -5.9622    0.1568    0.8980 H         1 <0>         0.0965
     39 H15        -4.2486    0.0183    0.4370 H         1 <0>         0.0920
     40 H16        -4.5138    3.2721    5.4123 H         1 <0>         0.0591
     41 H17        -6.1679    2.6205    5.3246 H         1 <0>         0.1025
     42 H18        -5.0237    1.9849    6.5309 H         1 <0>         0.0761
     43 H19        -2.1842   -0.9734    2.0969 H         1 <0>         0.4296
     44 H20        -0.2279    2.7223    6.9305 H         1 <0>         0.4700
@<TRIPOS>BOND
     1    1    2 1
     2    1   25 1
     3    1   26 1
     4    1   27 1
     5    2    7 ar
     6    2    3 ar
     7    3    4 ar
     8    3   28 1
     9    4    5 ar
    10    4   29 1
    11    5    6 ar
    12    5   30 1
    13    6    7 ar
    14    6   24 1
    15    7    8 1
    16    8    9 2
    17    9   14 1
    18    9   10 1
    19   10   11 1
    20   10   43 1
    21   11   21 1
    22   11   12 1
    23   11   31 1
    24   12   13 1
    25   12   19 1
    26   12   32 1
    27   13   17 1
    28   13   14 1
    29   14   15 2
    30   15   16 1
    31   15   33 1
    32   16   17 2
    33   16   44 1
    34   17   18 1
    35   18   34 1
    36   18   35 1
    37   18   36 1
    38   19   20 1
    39   19   23 1
    40   20   21 2
    41   21   22 1
    42   22   37 1
    43   22   38 1
    44   22   39 1
    45   23   40 1
    46   23   41 1
    47   23   42 1
@<TRIPOS>MOLECULE
CHEMBL187120__4
   43    46     0     0     0
SMALL
USER_CHARGES

@<TRIPOS>ATOM
      1 C1         -0.0475    1.6542   -0.0366 C.3       1 <0>        -0.1076
      2 C2          0.0422    0.1499   -0.0236 C.ar      1 <0>        -0.0974
      3 C3          0.0707   -0.5514   -1.2114 C.ar      1 <0>        -0.0996
      4 C4          0.1530   -1.9324   -1.2020 C.ar      1 <0>        -0.1188
      5 C5          0.2079   -2.6211   -0.0028 C.ar      1 <0>        -0.1007
      6 C6          0.1808   -1.9333    1.1933 C.ar      1 <0>        -0.0497
      7 C7          0.1025   -0.5372    1.1909 C.ar      1 <0>         0.1196
      8 N1          0.0804    0.1518    2.3718 N.2       1 <0>        -0.5065
      9 C8         -1.0673    0.4155    2.9580 C.2       1 <0>         0.5108
     10 N2         -2.3121    0.0071    2.4182 N.pl3     1 <0>        -0.7529
     11 C9         -3.3167   -0.2231    3.4315 C.3       1 <0>         0.1302
     12 C10        -3.6083    1.1370    4.1436 C.3       1 <0>         0.3218
     13 N3         -2.3871    1.4912    4.8182 N.pl3     1 <0>        -0.4488
     14 C11        -1.1583    1.1546    4.2328 C.2       1 <0>        -0.0376
     15 C12        -0.1998    1.6330    5.0512 C.2       1 <0>         0.0948
     16 N4         -0.8070    2.2055    6.0989 N.2       1 <0>        -0.4963
     17 C13        -2.1098    2.1211    5.9580 C.2       1 <0>         0.2683
     18 C14        -3.1293    2.6403    6.9389 C.3       1 <0>        -0.0937
     19 N5         -4.7912    0.7132    4.8851 N.pl3     1 <0>        -0.5713
     20 N6         -5.4936   -0.0961    3.9498 N.2       1 <0>        -0.1988
     21 C15        -4.7010   -0.6482    3.0816 C.2       1 <0>         0.0773
     22 C16        -5.1039   -1.5457    1.9399 C.3       1 <0>        -0.0781
     23 C17        -5.1654    1.0420    6.2629 C.3       1 <0>         0.1330
     24 Cl1         0.2491   -2.7987    2.6967 Cl        1 <0>        -0.0609
     25 H1          0.9566    2.0779   -0.0562 H         1 <0>         0.0769
     26 H2         -0.5957    1.9778   -0.9214 H         1 <0>         0.0685
     27 H3         -0.5683    1.9949    0.8583 H         1 <0>         0.0611
     28 H4          0.0282   -0.0208   -2.1512 H         1 <0>         0.1307
     29 H5          0.1743   -2.4757   -2.1352 H         1 <0>         0.1326
     30 H6          0.2718   -3.6992   -0.0031 H         1 <0>         0.1339
     31 H7         -2.9154   -0.9125    4.1743 H         1 <0>         0.0947
     32 H8         -3.8676    1.9006    3.4103 H         1 <0>         0.1027
     33 H9          0.8662    1.5660    4.8911 H         1 <0>         0.1901
     34 H10        -3.4315    1.8355    7.6091 H         1 <0>         0.0947
     35 H11        -2.6934    3.4528    7.5202 H         1 <0>         0.0992
     36 H12        -4.0006    3.0081    6.3969 H         1 <0>         0.0855
     37 H13        -5.1033   -2.5828    2.2754 H         1 <0>         0.0916
     38 H14        -6.1033   -1.2743    1.5998 H         1 <0>         0.0885
     39 H15        -4.3965   -1.4289    1.1189 H         1 <0>         0.0798
     40 H16        -5.3199    2.1174    6.3506 H         1 <0>         0.0674
     41 H17        -6.0862    0.5202    6.5236 H         1 <0>         0.0857
     42 H18        -4.3686    0.7330    6.9394 H         1 <0>         0.0634
     43 H19        -2.4733   -0.1056    1.4684 H         1 <0>         0.4157
@<TRIPOS>BOND
     1    1    2 1
     2    1   25 1
     3    1   26 1
     4    1   27 1
     5    2    7 ar
     6    2    3 ar
     7    3    4 ar
     8    3   28 1
     9    4    5 ar
    10    4   29 1
    11    5    6 ar
    12    5   30 1
    13    6    7 ar
    14    6   24 1
    15    7    8 1
    16    8    9 2
    17    9   14 1
    18    9   10 1
    19   10   11 1
    20   10   43 1
    21   11   21 1
    22   11   12 1
    23   11   31 1
    24   12   13 1
    25   12   19 1
    26   12   32 1
    27   13   17 1
    28   13   14 1
    29   14   15 2
    30   15   16 1
    31   15   33 1
    32   16   17 2
    33   17   18 1
    34   18   34 1
    35   18   35 1
    36   18   36 1
    37   19   20 1
    38   19   23 1
    39   20   21 2
    40   21   22 1
    41   22   37 1
    42   22   38 1
    43   22   39 1
    44   23   40 1
    45   23   41 1
    46   23   42 1
@<TRIPOS>MOLECULE
CHEMBL187120__5
   44    47     0     0     0
SMALL
USER_CHARGES

@<TRIPOS>ATOM
      1 C1         -0.0426    1.6540   -0.0341 C.3       1 <0>        -0.1108
      2 C2          0.0471    0.1497   -0.0207 C.ar      1 <0>        -0.0836
      3 C3          0.0761   -0.5518   -1.2084 C.ar      1 <0>        -0.0981
      4 C4          0.1585   -1.9328   -1.1986 C.ar      1 <0>        -0.0999
      5 C5          0.2128   -2.6213    0.0007 C.ar      1 <0>        -0.0987
      6 C6          0.1851   -1.9333    1.1967 C.ar      1 <0>        -0.0382
      7 C7          0.1068   -0.5371    1.1940 C.ar      1 <0>         0.0847
      8 N1          0.0842    0.1521    2.3748 N.2       1 <0>        -0.4522
      9 C8         -1.0637    0.4159    2.9604 C.2       1 <0>         0.4670
     10 N2         -2.3083    0.0074    2.4201 N.pl3     1 <0>        -0.7440
     11 C9         -3.3134   -0.2226    3.4330 C.3       1 <0>         0.1293
     12 C10        -3.6053    1.1376    4.1447 C.3       1 <0>         0.3058
     13 N3         -2.3844    1.4919    4.8197 N.pl3     1 <0>        -0.4012
     14 C11        -1.1554    1.1552    4.2350 C.2       1 <0>         0.0600
     15 C12        -0.1972    1.6338    5.0537 C.2       1 <0>         0.1034
     16 N4         -0.8049    2.2066    6.1011 N.pl3     1 <0>        -0.4880
     17 C13        -2.1077    2.1220    5.9596 C.cat     1 <0>         0.3617
     18 C14        -3.1276    2.6414    6.9399 C.3       1 <0>        -0.1375
     19 N5         -4.7885    0.7140    4.8858 N.pl3     1 <0>        -0.5716
     20 N6         -5.4906   -0.0955    3.9502 N.2       1 <0>        -0.1872
     21 C15        -4.6975   -0.6478    3.0825 C.2       1 <0>         0.0964
     22 C16        -5.0999   -1.5455    1.9409 C.3       1 <0>        -0.0863
     23 C17        -5.1634    1.0430    6.2633 C.3       1 <0>         0.1251
     24 Cl1         0.2527   -2.7983    2.7003 Cl        1 <0>        -0.0572
     25 H1          0.9615    2.0777   -0.0532 H         1 <0>         0.0819
     26 H2         -0.5905    1.9774   -0.9191 H         1 <0>         0.0759
     27 H3         -0.5638    1.9948    0.8605 H         1 <0>         0.0563
     28 H4          0.0341   -0.0214   -2.1482 H         1 <0>         0.1383
     29 H5          0.1801   -2.4763   -2.1317 H         1 <0>         0.1405
     30 H6          0.2767   -3.6994    0.0007 H         1 <0>         0.1413
     31 H7         -2.9124   -0.9119    4.1761 H         1 <0>         0.1048
     32 H8         -3.8643    1.9011    3.4111 H         1 <0>         0.1371
     33 H9          0.8689    1.5668    4.8941 H         1 <0>         0.2424
     34 H10        -3.4300    1.8368    7.6101 H         1 <0>         0.1345
     35 H11        -2.6919    3.4541    7.5212 H         1 <0>         0.1254
     36 H12        -3.9986    3.0091    6.3974 H         1 <0>         0.1269
     37 H13        -5.0995   -2.5825    2.2765 H         1 <0>         0.0998
     38 H14        -6.0992   -1.2742    1.6002 H         1 <0>         0.0970
     39 H15        -4.3922   -1.4289    1.1201 H         1 <0>         0.0853
     40 H16        -5.3179    2.1184    6.3507 H         1 <0>         0.0724
     41 H17        -6.0842    0.5212    6.5237 H         1 <0>         0.1016
     42 H18        -4.3668    0.7341    6.9402 H         1 <0>         0.0605
     43 H19        -2.4691   -0.1055    1.4702 H         1 <0>         0.4291
     44 H20        -0.3509    2.6279    6.8476 H         1 <0>         0.4701
@<TRIPOS>BOND
     1    1    2 1
     2    1   25 1
     3    1   26 1
     4    1   27 1
     5    2    7 ar
     6    2    3 ar
     7    3    4 ar
     8    3   28 1
     9    4    5 ar
    10    4   29 1
    11    5    6 ar
    12    5   30 1
    13    6    7 ar
    14    6   24 1
    15    7    8 1
    16    8    9 2
    17    9   14 1
    18    9   10 1
    19   10   11 1
    20   10   43 1
    21   11   21 1
    22   11   12 1
    23   11   31 1
    24   12   13 1
    25   12   19 1
    26   12   32 1
    27   13   17 1
    28   13   14 1
    29   14   15 2
    30   15   16 1
    31   15   33 1
    32   16   17 2
    33   16   44 1
    34   17   18 1
    35   18   34 1
    36   18   35 1
    37   18   36 1
    38   19   20 1
    39   19   23 1
    40   20   21 2
    41   21   22 1
    42   22   37 1
    43   22   38 1
    44   22   39 1
    45   23   40 1
    46   23   41 1
    47   23   42 1
@<TRIPOS>MOLECULE
CHEMBL187120__6
   43    46     0     0     0
SMALL
USER_CHARGES

@<TRIPOS>ATOM
      1 C1          0.6705    0.9278    0.3081 C.3       1 <0>        -0.1079
      2 C2          0.5801   -0.5729    0.2042 C.ar      1 <0>        -0.0973
      3 C3          0.6451   -1.1857   -1.0302 C.ar      1 <0>        -0.1002
      4 C4          0.5624   -2.5632   -1.1281 C.ar      1 <0>        -0.1162
      5 C5          0.4144   -3.3371    0.0097 C.ar      1 <0>        -0.0996
      6 C6          0.3483   -2.7384    1.2513 C.ar      1 <0>        -0.0472
      7 C7          0.4362   -1.3469    1.3578 C.ar      1 <0>         0.1231
      8 N1          0.3768   -0.7466    2.5850 N.2       1 <0>        -0.4947
      9 C8         -0.7849   -0.3833    3.0839 C.2       1 <0>         0.5111
     10 N2         -0.9506    0.2428    4.3273 N.pl3     1 <0>        -0.7306
     11 C9         -1.9450   -0.2707    5.2548 C.3       1 <0>         0.1615
     12 C10        -3.2624   -0.7198    4.6206 C.3       1 <0>         0.3228
     13 N3         -3.2387   -0.7063    3.1647 N.pl3     1 <0>        -0.4494
     14 C11        -2.0800   -0.5768    2.4038 C.2       1 <0>        -0.0649
     15 C12        -2.4276   -0.6624    1.1090 C.2       1 <0>         0.0555
     16 N4         -3.7609   -0.7974    1.0634 N.2       1 <0>        -0.4899
     17 C13        -4.2472   -0.8217    2.2890 C.2       1 <0>         0.2475
     18 C14        -5.7058   -0.9429    2.6482 C.3       1 <0>        -0.0834
     19 N5         -3.4010   -2.1141    5.0859 N.pl3     1 <0>        -0.5510
     20 N6         -2.2715   -2.4466    5.8321 N.2       1 <0>        -0.2077
     21 C15        -1.4325   -1.5010    5.9656 C.2       1 <0>         0.0378
     22 C16        -0.1288   -1.5933    6.7159 C.3       1 <0>        -0.0693
     23 C17        -4.5354   -2.9992    4.8104 C.3       1 <0>         0.1372
     24 Cl1         0.1621   -3.7105    2.6776 Cl        1 <0>        -0.0593
     25 H1          1.7145    1.2224    0.4155 H         1 <0>         0.0763
     26 H2          0.2563    1.3800   -0.5931 H         1 <0>         0.0715
     27 H3          0.1062    1.2666    1.1769 H         1 <0>         0.0608
     28 H4          0.7605   -0.5884   -1.9226 H         1 <0>         0.1333
     29 H5          0.6131   -3.0370   -2.0973 H         1 <0>         0.1340
     30 H6          0.3501   -4.4119   -0.0743 H         1 <0>         0.1338
     31 H7         -2.1693    0.4970    5.9954 H         1 <0>         0.1292
     32 H8         -4.0854   -0.1072    4.9887 H         1 <0>         0.1259
     33 H9         -1.7579   -0.6285    0.2624 H         1 <0>         0.1766
     34 H10        -6.1753    0.0395    2.5977 H         1 <0>         0.0888
     35 H11        -6.1978   -1.6172    1.9472 H         1 <0>         0.0966
     36 H12        -5.7992   -1.3388    3.6595 H         1 <0>         0.0773
     37 H13        -0.2888   -1.3157    7.7578 H         1 <0>         0.0823
     38 H14         0.2477   -2.6149    6.6658 H         1 <0>         0.0767
     39 H15         0.5976   -0.9159    6.2669 H         1 <0>         0.0827
     40 H16        -4.3892   -3.4881    3.8472 H         1 <0>         0.0481
     41 H17        -4.6062   -3.7537    5.5938 H         1 <0>         0.0831
     42 H18        -5.4548   -2.4143    4.7851 H         1 <0>         0.0754
     43 H19        -0.4074    1.0101    4.5662 H         1 <0>         0.4198
@<TRIPOS>BOND
     1    1    2 1
     2    1   25 1
     3    1   26 1
     4    1   27 1
     5    2    7 ar
     6    2    3 ar
     7    3    4 ar
     8    3   28 1
     9    4    5 ar
    10    4   29 1
    11    5    6 ar
    12    5   30 1
    13    6    7 ar
    14    6   24 1
    15    7    8 1
    16    8    9 2
    17    9   14 1
    18    9   10 1
    19   10   11 1
    20   10   43 1
    21   11   21 1
    22   11   12 1
    23   11   31 1
    24   12   13 1
    25   12   19 1
    26   12   32 1
    27   13   17 1
    28   13   14 1
    29   14   15 2
    30   15   16 1
    31   15   33 1
    32   16   17 2
    33   17   18 1
    34   18   34 1
    35   18   35 1
    36   18   36 1
    37   19   20 1
    38   19   23 1
    39   20   21 2
    40   21   22 1
    41   22   37 1
    42   22   38 1
    43   22   39 1
    44   23   40 1
    45   23   41 1
    46   23   42 1
@<TRIPOS>MOLECULE
CHEMBL187120__7
   44    47     0     0     0
SMALL
USER_CHARGES

@<TRIPOS>ATOM
      1 C1          0.6706    0.9277    0.3080 C.3       1 <0>        -0.1165
      2 C2          0.5802   -0.5730    0.2041 C.ar      1 <0>        -0.0954
      3 C3          0.6451   -1.1858   -1.0303 C.ar      1 <0>        -0.1005
      4 C4          0.5623   -2.5633   -1.1282 C.ar      1 <0>        -0.1025
      5 C5          0.4143   -3.3372    0.0096 C.ar      1 <0>        -0.0971
      6 C6          0.3483   -2.7385    1.2512 C.ar      1 <0>        -0.0466
      7 C7          0.4362   -1.3470    1.3577 C.ar      1 <0>         0.0827
      8 N1          0.3768   -0.7467    2.5849 N.2       1 <0>        -0.4313
      9 C8         -0.7848   -0.3834    3.0838 C.2       1 <0>         0.4800
     10 N2         -0.9506    0.2427    4.3272 N.pl3     1 <0>        -0.7217
     11 C9         -1.9450   -0.2708    5.2547 C.3       1 <0>         0.1540
     12 C10        -3.2624   -0.7198    4.6205 C.3       1 <0>         0.3102
     13 N3         -3.2386   -0.7064    3.1646 N.pl3     1 <0>        -0.4039
     14 C11        -2.0800   -0.5768    2.4037 C.2       1 <0>         0.0220
     15 C12        -2.4276   -0.6625    1.1089 C.2       1 <0>         0.0623
     16 N4         -3.7609   -0.7974    1.0633 N.pl3     1 <0>        -0.4850
     17 C13        -4.2472   -0.8217    2.2889 C.cat     1 <0>         0.3480
     18 C14        -5.7057   -0.9429    2.6481 C.3       1 <0>        -0.1267
     19 N5         -3.4010   -2.1142    5.0858 N.pl3     1 <0>        -0.5463
     20 N6         -2.2716   -2.4467    5.8320 N.2       1 <0>        -0.2039
     21 C15        -1.4325   -1.5011    5.9655 C.2       1 <0>         0.0612
     22 C16        -0.1288   -1.5934    6.7158 C.3       1 <0>        -0.0791
     23 C17        -4.5354   -2.9992    4.8103 C.3       1 <0>         0.1261
     24 Cl1         0.1621   -3.7106    2.6775 Cl        1 <0>        -0.0468
     25 H1          1.7145    1.2222    0.4154 H         1 <0>         0.0876
     26 H2          0.2564    1.3799   -0.5932 H         1 <0>         0.0780
     27 H3          0.1063    1.2665    1.1768 H         1 <0>         0.0596
     28 H4          0.7605   -0.5884   -1.9226 H         1 <0>         0.1424
     29 H5          0.6131   -3.0371   -2.0974 H         1 <0>         0.1429
     30 H6          0.3500   -4.4120   -0.0744 H         1 <0>         0.1428
     31 H7         -2.1692    0.4969    5.9953 H         1 <0>         0.1521
     32 H8         -4.0853   -0.1072    4.9887 H         1 <0>         0.1556
     33 H9         -1.7578   -0.6286    0.2623 H         1 <0>         0.2248
     34 H10        -6.1752    0.0395    2.5976 H         1 <0>         0.1304
     35 H11        -6.1978   -1.6172    1.9471 H         1 <0>         0.1254
     36 H12        -5.7992   -1.3388    3.6594 H         1 <0>         0.1169
     37 H13        -0.2888   -1.3159    7.7577 H         1 <0>         0.0933
     38 H14         0.2477   -2.6151    6.6657 H         1 <0>         0.0849
     39 H15         0.5976   -0.9161    6.2668 H         1 <0>         0.0888
     40 H16        -4.3893   -3.4881    3.8471 H         1 <0>         0.0518
     41 H17        -4.6062   -3.7538    5.5937 H         1 <0>         0.0995
     42 H18        -5.4549   -2.4143    4.7851 H         1 <0>         0.0801
     43 H19        -0.4078    1.0103    4.5659 H         1 <0>         0.4336
     44 H20        -4.2868   -0.8735    0.2518 H         1 <0>         0.4663
@<TRIPOS>BOND
     1    1    2 1
     2    1   25 1
     3    1   26 1
     4    1   27 1
     5    2    7 ar
     6    2    3 ar
     7    3    4 ar
     8    3   28 1
     9    4    5 ar
    10    4   29 1
    11    5    6 ar
    12    5   30 1
    13    6    7 ar
    14    6   24 1
    15    7    8 1
    16    8    9 2
    17    9   14 1
    18    9   10 1
    19   10   11 1
    20   10   43 1
    21   11   21 1
    22   11   12 1
    23   11   31 1
    24   12   13 1
    25   12   19 1
    26   12   32 1
    27   13   17 1
    28   13   14 1
    29   14   15 2
    30   15   16 1
    31   15   33 1
    32   16   17 2
    33   16   44 1
    34   17   18 1
    35   18   34 1
    36   18   35 1
    37   18   36 1
    38   19   20 1
    39   19   23 1
    40   20   21 2
    41   21   22 1
    42   22   37 1
    43   22   38 1
    44   22   39 1
    45   23   40 1
    46   23   41 1
    47   23   42 1
@<TRIPOS>MOLECULE
CHEMBL362119
   49    53     0     0     0
SMALL
USER_CHARGES

@<TRIPOS>ATOM
      1 C1          2.6563   -0.2055    1.3936 C.3       1 <0>        -0.1158
      2 C2          1.4881   -0.8664    0.7082 C.ar      1 <0>        -0.0658
      3 C3          1.6874   -1.5973   -0.4470 C.ar      1 <0>        -0.1085
      4 C4          0.6167   -2.2042   -1.0769 C.ar      1 <0>        -0.0939
      5 C5         -0.6576   -2.0825   -0.5530 C.ar      1 <0>        -0.1130
      6 C6         -0.8643   -1.3530    0.6021 C.ar      1 <0>        -0.0086
      7 C7          0.2114   -0.7460    1.2404 C.ar      1 <0>         0.1400
      8 N1          0.0071   -0.0113    2.4125 N.pl3     1 <0>        -0.6316
      9 C8         -0.3762   -0.6544    3.5722 C.2       1 <0>         0.5341
     10 C9         -0.4793    0.0933    4.8232 C.2       1 <0>        -0.0993
     11 C10        -0.2718    1.4040    5.1772 C.2       1 <0>         0.0655
     12 N2         -0.5243    1.5114    6.4835 N.2       1 <0>        -0.4652
     13 C11        -0.8771    0.3447    6.9647 C.2       1 <0>         0.2133
     14 N3         -0.8647   -0.5653    5.9772 N.pl3     1 <0>        -0.3574
     15 C12        -1.1425   -1.9262    5.9073 C.ar      1 <0>        -0.0472
     16 C13        -1.5326   -2.6345    7.0300 C.ar      1 <0>         0.1828
     17 N4         -1.7945   -3.9262    6.9529 N.ar      1 <0>        -0.5312
     18 C14        -1.6986   -4.5994    5.8140 C.ar      1 <0>         0.4038
     19 C15        -1.3150   -3.9694    4.6417 C.ar      1 <0>        -0.2153
     20 C16        -1.0270   -2.5991    4.6757 C.ar      1 <0>         0.2447
     21 N5         -0.6548   -1.9423    3.5511 N.2       1 <0>        -0.5625
     22 N6         -1.9878   -5.9611    5.7967 N.pl3     1 <0>        -0.6267
     23 C17        -2.6157   -6.6157    6.9549 C.3       1 <0>         0.1047
     24 C18        -3.8234   -7.4200    6.4625 C.3       1 <0>        -0.0235
     25 N7         -3.3968   -8.3423    5.4026 N.4       1 <0>        -0.5046
     26 C19        -2.9267   -7.5823    4.2375 C.3       1 <0>        -0.0222
     27 C20        -1.6798   -6.7849    4.6175 C.3       1 <0>         0.0984
     28 Cl1        -2.4640   -1.2000    1.2589 Cl        1 <0>        -0.0565
     29 H1          3.0907   -0.8952    2.1172 H         1 <0>         0.0754
     30 H2          3.4080    0.0637    0.6516 H         1 <0>         0.0778
     31 H3          2.3151    0.6931    1.9076 H         1 <0>         0.0674
     32 H4          2.6811   -1.6945   -0.8590 H         1 <0>         0.1366
     33 H5          0.7756   -2.7743   -1.9802 H         1 <0>         0.1375
     34 H6         -1.4918   -2.5578   -1.0475 H         1 <0>         0.1369
     35 H7          0.1347    0.9503    2.4106 H         1 <0>         0.4277
     36 H8          0.0391    2.2019    4.5191 H         1 <0>         0.1892
     37 H9         -1.1363    0.1460    7.9941 H         1 <0>         0.2209
     38 H10        -1.6233   -2.1261    7.9785 H         1 <0>         0.1694
     39 H11        -1.2389   -4.5246    3.7184 H         1 <0>         0.1470
     40 H12        -1.8989   -7.2853    7.4303 H         1 <0>         0.0891
     41 H13        -2.9449   -5.8604    7.6685 H         1 <0>         0.1366
     42 H14        -4.2438   -7.9888    7.2918 H         1 <0>         0.1455
     43 H15        -4.5780   -6.7386    6.0694 H         1 <0>         0.1336
     44 H16        -2.6484   -8.9251    5.7467 H         1 <0>         0.4289
     45 H17        -2.6865   -8.2707    3.4273 H         1 <0>         0.1473
     46 H18        -3.7084   -6.8961    3.9118 H         1 <0>         0.1354
     47 H19        -1.3905   -6.1415    3.7866 H         1 <0>         0.1304
     48 H20        -0.8669   -7.4719    4.8529 H         1 <0>         0.0946
     49 H21        -4.1753   -8.9241    5.1314 H         1 <0>         0.4339
@<TRIPOS>BOND
     1    1    2 1
     2    1   29 1
     3    1   30 1
     4    1   31 1
     5    2    7 ar
     6    2    3 ar
     7    3    4 ar
     8    3   32 1
     9    4    5 ar
    10    4   33 1
    11    5    6 ar
    12    5   34 1
    13    6    7 ar
    14    6   28 1
    15    7    8 1
    16    8    9 1
    17    8   35 1
    18    9   21 2
    19    9   10 1
    20   10   14 1
    21   10   11 2
    22   11   12 1
    23   11   36 1
    24   12   13 2
    25   13   14 1
    26   13   37 1
    27   14   15 1
    28   15   20 ar
    29   15   16 ar
    30   16   17 ar
    31   16   38 1
    32   17   18 ar
    33   18   19 ar
    34   18   22 1
    35   19   20 ar
    36   19   39 1
    37   20   21 1
    38   22   27 1
    39   22   23 1
    40   23   24 1
    41   23   40 1
    42   23   41 1
    43   24   25 1
    44   24   42 1
    45   24   43 1
    46   25   26 1
    47   25   44 1
    48   25   49 1
    49   26   27 1
    50   26   45 1
    51   26   46 1
    52   27   47 1
    53   27   48 1
@<TRIPOS>MOLECULE
CHEMBL315643
   58    62     0     0     0
SMALL
USER_CHARGES

@<TRIPOS>ATOM
      1 C1         -1.4170    1.1770    0.2225 C.3       1 <0>        -0.1167
      2 C2         -0.7173   -0.1517    0.0957 C.ar      1 <0>        -0.0855
      3 C3         -0.7324   -0.8289   -1.1083 C.ar      1 <0>        -0.1058
      4 C4         -0.0909   -2.0479   -1.2262 C.ar      1 <0>        -0.1077
      5 C5          0.5685   -2.5938   -0.1399 C.ar      1 <0>        -0.1070
      6 C6          0.5880   -1.9217    1.0673 C.ar      1 <0>        -0.0245
      7 C7         -0.0521   -0.6936    1.1872 C.ar      1 <0>         0.1457
      8 N1         -0.0305   -0.0077    2.4064 N.am      1 <0>        -0.6725
      9 C8         -0.4050   -0.6348    3.5391 C.2       1 <0>         0.5617
     10 O1         -0.6645   -1.8228    3.5191 O.2       1 <0>        -0.4979
     11 C9         -0.5000    0.1194    4.8024 C.ar      1 <0>        -0.1346
     12 C10        -0.2088    1.4905    4.8363 C.ar      1 <0>        -0.0709
     13 C11        -0.2893    2.2027    5.9869 C.ar      1 <0>        -0.0788
     14 C12        -0.6728    1.5855    7.2037 C.ar      1 <0>         0.1486
     15 C13        -0.9623    0.2002    7.1438 C.ar      1 <0>        -0.1732
     16 C14        -0.8876   -0.5211    5.9845 C.ar      1 <0>         0.0162
     17 S1         -1.3875   -0.1710    8.8286 S.3       1 <0>         0.0078
     18 C15        -1.1627    1.4764    9.4842 C.2       1 <0>         0.4016
     19 N2         -0.7971    2.1548    8.4183 N.2       1 <0>        -0.5148
     20 N3         -1.3308    1.9232   10.7791 N.pl3     1 <0>        -0.5942
     21 C16        -1.2091    3.2794   11.0689 C.ar      1 <0>         0.3660
     22 C17        -1.4905    3.7381   12.3515 C.ar      1 <0>        -0.1995
     23 C18        -1.3655    5.0881   12.6257 C.ar      1 <0>        -0.0040
     24 C19        -0.9617    5.9372   11.6037 C.ar      1 <0>        -0.1795
     25 C20        -0.6987    5.4134   10.3538 C.ar      1 <0>         0.1398
     26 N4         -0.8213    4.1201   10.1226 N.ar      1 <0>        -0.4732
     27 C21        -1.6614    5.6254   14.0022 C.3       1 <0>         0.0919
     28 N5         -0.4348    5.6043   14.8102 N.3       1 <0>        -0.5306
     29 C22         0.0031    4.2246   15.0672 C.3       1 <0>         0.0127
     30 C23         1.3131    4.2498   15.8590 C.3       1 <0>         0.0632
     31 O2          1.1200    4.9905   17.0671 O.3       1 <0>        -0.3844
     32 C24         0.6939    6.3389   16.8538 C.3       1 <0>         0.0628
     33 C25        -0.6225    6.3349   16.0721 C.3       1 <0>         0.0175
     34 Cl1         1.4153   -2.6075    2.4308 Cl        1 <0>        -0.0445
     35 H1         -0.7239    1.9785   -0.0332 H         1 <0>         0.0757
     36 H2         -2.2702    1.2045   -0.4552 H         1 <0>         0.0747
     37 H3         -1.7629    1.3091    1.2477 H         1 <0>         0.0685
     38 H4         -1.2463   -0.4056   -1.9587 H         1 <0>         0.1334
     39 H5         -0.1050   -2.5753   -2.1685 H         1 <0>         0.1346
     40 H6          1.0684   -3.5465   -0.2351 H         1 <0>         0.1364
     41 H7          0.2539    0.9192    2.4365 H         1 <0>         0.4111
     42 H8          0.0865    1.9902    3.9256 H         1 <0>         0.1333
     43 H9         -0.0570    3.2574    5.9762 H         1 <0>         0.1403
     44 H10        -1.1212   -1.5755    5.9821 H         1 <0>         0.1459
     45 H11        -1.5337    1.2922   11.4874 H         1 <0>         0.4391
     46 H12        -1.8028    3.0495   13.1228 H         1 <0>         0.1338
     47 H13        -0.8547    6.9965   11.7849 H         1 <0>         0.1387
     48 H14        -0.3844    6.0700    9.5561 H         1 <0>         0.1620
     49 H15        -2.0259    6.6495   13.9218 H         1 <0>         0.0940
     50 H16        -2.4211    5.0057   14.4786 H         1 <0>         0.0515
     51 H17        -0.7604    3.7018   15.6433 H         1 <0>         0.0451
     52 H18         0.1606    3.7102   14.1193 H         1 <0>         0.0886
     53 H19         1.6117    3.2298   16.1012 H         1 <0>         0.0991
     54 H20         2.0907    4.7251   15.2611 H         1 <0>         0.0606
     55 H21         0.5446    6.8299   17.8155 H         1 <0>         0.1007
     56 H22         1.4535    6.8749   16.2848 H         1 <0>         0.0614
     57 H23        -0.9216    7.3608   15.8576 H         1 <0>         0.0899
     58 H24        -1.3959    5.8458   16.6642 H         1 <0>         0.0461
@<TRIPOS>BOND
     1    1    2 1
     2    1   35 1
     3    1   36 1
     4    1   37 1
     5    2    7 ar
     6    2    3 ar
     7    3    4 ar
     8    3   38 1
     9    4    5 ar
    10    4   39 1
    11    5    6 ar
    12    5   40 1
    13    6    7 ar
    14    6   34 1
    15    7    8 1
    16    8    9 am
    17    8   41 1
    18    9   10 2
    19    9   11 1
    20   11   16 ar
    21   11   12 ar
    22   12   13 ar
    23   12   42 1
    24   13   14 ar
    25   13   43 1
    26   14   19 1
    27   14   15 ar
    28   15   16 ar
    29   15   17 1
    30   16   44 1
    31   17   18 1
    32   18   19 2
    33   18   20 1
    34   20   21 1
    35   20   45 1
    36   21   26 ar
    37   21   22 ar
    38   22   23 ar
    39   22   46 1
    40   23   24 ar
    41   23   27 1
    42   24   25 ar
    43   24   47 1
    44   25   26 ar
    45   25   48 1
    46   27   28 1
    47   27   49 1
    48   27   50 1
    49   28   33 1
    50   28   29 1
    51   29   30 1
    52   29   51 1
    53   29   52 1
    54   30   31 1
    55   30   53 1
    56   30   54 1
    57   31   32 1
    58   32   33 1
    59   32   55 1
    60   32   56 1
    61   33   57 1
    62   33   58 1
@<TRIPOS>MOLECULE
CHEMBL584724
   59    64     0     0     0
SMALL
USER_CHARGES

@<TRIPOS>ATOM
      1 C1         10.8096   -0.1358   -0.9760 C.ar      1 <0>        -0.1048
      2 C2         10.6567   -1.2286   -1.8273 C.ar      1 <0>        -0.1146
      3 C3          9.5063   -1.9555   -1.8334 C.ar      1 <0>        -0.1002
      4 C4          8.4545   -1.6014   -0.9692 C.ar      1 <0>        -0.0604
      5 C5          7.2556   -2.3297   -0.9497 C.ar      1 <0>        -0.0697
      6 C6          6.2427   -1.9507   -0.0846 C.ar      1 <0>        -0.1269
      7 C7          6.4095   -0.8456    0.7695 C.ar      1 <0>        -0.0744
      8 C8          7.5623   -0.1294    0.7638 C.ar      1 <0>        -0.1044
      9 C9          8.6104   -0.4894   -0.1033 C.ar      1 <0>        -0.0346
     10 C10         9.8132    0.2362   -0.1263 C.ar      1 <0>        -0.1104
     11 C11         4.9769   -2.7128   -0.0589 C.2       1 <0>         0.5650
     12 O1          3.9178   -2.1282    0.0604 O.2       1 <0>        -0.5245
     13 N1          4.9968   -4.0560   -0.1676 N.am      1 <0>        -0.6124
     14 C12         3.7473   -4.8256   -0.2777 C.3       1 <0>         0.0758
     15 C13         3.7820   -5.9545    0.7588 C.3       1 <0>         0.0495
     16 O2          4.9973   -6.6925    0.6106 O.3       1 <0>        -0.3702
     17 C14         6.1802   -5.9266    0.8514 C.3       1 <0>         0.0633
     18 C15         6.2686   -4.7958   -0.1860 C.3       1 <0>         0.0739
     19 C16         7.4085   -6.8302    0.7258 C.3       1 <0>         0.1495
     20 N2          7.3203   -7.9135    1.7081 N.pl3     1 <0>        -0.6862
     21 C17         8.3247   -8.8627    1.7835 C.ar      1 <0>         0.6008
     22 N3          9.3614   -8.7729    0.9632 N.ar      1 <0>        -0.5769
     23 C18        10.3417   -9.6621    1.0063 C.ar      1 <0>         0.2241
     24 C19        10.2768  -10.6960    1.9221 C.ar      1 <0>        -0.3079
     25 C20         9.1734  -10.7638    2.7719 C.ar      1 <0>         0.4508
     26 N4          8.2285   -9.8350    2.6776 N.ar      1 <0>        -0.5913
     27 N5          9.0658  -11.7885    3.7099 N.pl3     1 <0>        -0.4407
     28 C21         9.9645  -12.7938    3.9174 C.2       1 <0>         0.2752
     29 N6          9.5482  -13.5747    4.8702 N.2       1 <0>        -0.4710
     30 C22         8.3550  -13.1276    5.3415 C.ar      1 <0>         0.0428
     31 C23         8.0303  -11.9732    4.6092 C.ar      1 <0>         0.0568
     32 C24         6.8542  -11.2895    4.8794 C.ar      1 <0>        -0.0895
     33 C25         6.0083  -11.7440    5.8692 C.ar      1 <0>        -0.1033
     34 C26         6.3257  -12.8812    6.5976 C.ar      1 <0>        -0.1197
     35 C27         7.4849  -13.5769    6.3377 C.ar      1 <0>        -0.0663
     36 H1         11.7345    0.4219   -0.9875 H         1 <0>         0.1267
     37 H2         11.4627   -1.5023   -2.4920 H         1 <0>         0.1272
     38 H3          9.4013   -2.7999   -2.4986 H         1 <0>         0.1307
     39 H4          7.1234   -3.1786   -1.6041 H         1 <0>         0.1366
     40 H5          5.6098   -0.5632    1.4381 H         1 <0>         0.1325
     41 H6          7.6754    0.7169    1.4251 H         1 <0>         0.1354
     42 H7          9.9469    1.0853    0.5277 H         1 <0>         0.1307
     43 H8          2.8961   -4.1735   -0.0820 H         1 <0>         0.1063
     44 H9          3.6638   -5.2487   -1.2787 H         1 <0>         0.0812
     45 H10         3.7340   -5.5297    1.7615 H         1 <0>         0.0593
     46 H11         2.9316   -6.6183    0.6027 H         1 <0>         0.1127
     47 H12         6.1409   -5.5018    1.8544 H         1 <0>         0.0743
     48 H13         6.4346   -5.2160   -1.1780 H         1 <0>         0.0874
     49 H14         7.0878   -4.1240    0.0704 H         1 <0>         0.1080
     50 H15         7.4477   -7.2525   -0.2783 H         1 <0>         0.0829
     51 H16         8.3099   -6.2456    0.9095 H         1 <0>         0.0890
     52 H17         6.5580   -7.9656    2.3056 H         1 <0>         0.4189
     53 H18        11.1825   -9.5808    0.3333 H         1 <0>         0.1798
     54 H19        11.0628  -11.4346    1.9776 H         1 <0>         0.1515
     55 H20        10.8867  -12.9224    3.3701 H         1 <0>         0.2234
     56 H21         6.6017  -10.4031    4.3163 H         1 <0>         0.1384
     57 H22         5.0927  -11.2110    6.0789 H         1 <0>         0.1329
     58 H23         5.6552  -13.2269    7.3705 H         1 <0>         0.1335
     59 H24         7.7261  -14.4608    6.9096 H         1 <0>         0.1337
@<TRIPOS>BOND
     1    1   10 ar
     2    1    2 ar
     3    1   36 1
     4    2    3 ar
     5    2   37 1
     6    3    4 ar
     7    3   38 1
     8    4    9 ar
     9    4    5 ar
    10    5    6 ar
    11    5   39 1
    12    6    7 ar
    13    6   11 1
    14    7    8 ar
    15    7   40 1
    16    8    9 ar
    17    8   41 1
    18    9   10 ar
    19   10   42 1
    20   11   12 2
    21   11   13 am
    22   13   18 1
    23   13   14 1
    24   14   15 1
    25   14   43 1
    26   14   44 1
    27   15   16 1
    28   15   45 1
    29   15   46 1
    30   16   17 1
    31   17   18 1
    32   17   19 1
    33   17   47 1
    34   18   48 1
    35   18   49 1
    36   19   20 1
    37   19   50 1
    38   19   51 1
    39   20   21 1
    40   20   52 1
    41   21   26 ar
    42   21   22 ar
    43   22   23 ar
    44   23   24 ar
    45   23   53 1
    46   24   25 ar
    47   24   54 1
    48   25   26 ar
    49   25   27 1
    50   27   31 1
    51   27   28 1
    52   28   29 2
    53   28   55 1
    54   29   30 1
    55   30   35 ar
    56   30   31 ar
    57   31   32 ar
    58   32   33 ar
    59   32   56 1
    60   33   34 ar
    61   33   57 1
    62   34   35 ar
    63   34   58 1
    64   35   59 1
@<TRIPOS>MOLECULE
CHEMBL584724__1
   59    64     0     0     0
SMALL
USER_CHARGES

@<TRIPOS>ATOM
      1 C1         10.8277   -0.1608    0.8118 C.ar      1 <0>        -0.1056
      2 C2         10.6825   -1.2620    1.6535 C.ar      1 <0>        -0.1139
      3 C3          9.5304   -1.9862    1.6662 C.ar      1 <0>        -0.1010
      4 C4          8.4690   -1.6205    0.8187 C.ar      1 <0>        -0.0581
      5 C5          7.2676   -2.3450    0.8071 C.ar      1 <0>        -0.0720
      6 C6          6.2450   -1.9542   -0.0410 C.ar      1 <0>        -0.1232
      7 C7          6.4042   -0.8409   -0.8858 C.ar      1 <0>        -0.0776
      8 C8          7.5595   -0.1287   -0.8882 C.ar      1 <0>        -0.1019
      9 C9          8.6172   -0.5001   -0.0377 C.ar      1 <0>        -0.0366
     10 C10         9.8219    0.2224   -0.0218 C.ar      1 <0>        -0.1097
     11 C11         4.9769   -2.7128   -0.0589 C.2       1 <0>         0.5652
     12 O1          3.9160   -2.1253    0.0245 O.2       1 <0>        -0.5232
     13 N1          4.9968   -4.0560   -0.1676 N.am      1 <0>        -0.6105
     14 C12         3.7473   -4.8256   -0.2777 C.3       1 <0>         0.0760
     15 C13         3.8662   -5.7714   -1.4782 C.3       1 <0>         0.0491
     16 O2          5.0716   -6.5311   -1.3614 O.3       1 <0>        -0.3699
     17 C14         6.2645   -5.7435   -1.3856 C.3       1 <0>         0.0636
     18 C15         6.2686   -4.7958   -0.1860 C.3       1 <0>         0.0722
     19 C16         7.4854   -6.6630   -1.3170 C.3       1 <0>         0.1496
     20 N2          7.5427   -7.4896   -2.5252 N.pl3     1 <0>        -0.6871
     21 C17         8.5677   -8.4050   -2.6894 C.ar      1 <0>         0.6009
     22 N3          9.4856   -8.5241   -1.7412 N.ar      1 <0>        -0.5766
     23 C18        10.4806   -9.3893   -1.8629 C.ar      1 <0>         0.2241
     24 C19        10.5574  -10.1762   -2.9972 C.ar      1 <0>        -0.3076
     25 C20         9.5769  -10.0279   -3.9775 C.ar      1 <0>         0.4507
     26 N4          8.6038   -9.1438   -3.7879 N.ar      1 <0>        -0.5914
     27 N5          9.6146  -10.7994   -5.1372 N.pl3     1 <0>        -0.4406
     28 C21        10.5467  -11.7451   -5.4504 C.2       1 <0>         0.2752
     29 N6         10.2771  -12.2707   -6.6089 N.2       1 <0>        -0.4710
     30 C22         9.1550  -11.7011   -7.1211 C.ar      1 <0>         0.0428
     31 C23         8.7103  -10.7537   -6.1836 C.ar      1 <0>         0.0568
     32 C24         7.5665  -10.0116   -6.4381 C.ar      1 <0>        -0.0896
     33 C25         6.8674  -10.2088   -7.6104 C.ar      1 <0>        -0.1033
     34 C26         7.3002  -11.1454   -8.5377 C.ar      1 <0>        -0.1198
     35 C27         8.4376  -11.8853   -8.3055 C.ar      1 <0>        -0.0662
     36 H1         11.7507    0.3999    0.8242 H         1 <0>         0.1267
     37 H2         11.4961   -1.5449    2.3049 H         1 <0>         0.1272
     38 H3          9.4316   -2.8375    2.3233 H         1 <0>         0.1307
     39 H4          7.1415   -3.2006    1.4540 H         1 <0>         0.1356
     40 H5          5.5969   -0.5494   -1.5413 H         1 <0>         0.1310
     41 H6          7.6670    0.7235   -1.5428 H         1 <0>         0.1354
     42 H7          9.9495    1.0783   -0.6680 H         1 <0>         0.1306
     43 H8          3.5918   -5.4052    0.6323 H         1 <0>         0.0815
     44 H9          2.9091   -4.1452   -0.4279 H         1 <0>         0.1055
     45 H10         3.0106   -6.4465   -1.4960 H         1 <0>         0.1131
     46 H11         3.8906   -5.1891   -2.3994 H         1 <0>         0.0588
     47 H12         6.2976   -5.1611   -2.3064 H         1 <0>         0.0733
     48 H13         7.0993   -4.0957   -0.2756 H         1 <0>         0.1083
     49 H14         6.3713   -5.3724    0.7333 H         1 <0>         0.0877
     50 H15         8.3907   -6.0601   -1.2460 H         1 <0>         0.0891
     51 H16         7.4073   -7.3059   -0.4403 H         1 <0>         0.0841
     52 H17         6.8623   -7.3954   -3.2101 H         1 <0>         0.4182
     53 H18        11.2242   -9.4790   -1.0848 H         1 <0>         0.1799
     54 H19        11.3590  -10.8893   -3.1214 H         1 <0>         0.1516
     55 H20        11.3860  -12.0172   -4.8274 H         1 <0>         0.2234
     56 H21         7.2240   -9.2814   -5.7198 H         1 <0>         0.1383
     57 H22         5.9769   -9.6305   -7.8077 H         1 <0>         0.1329
     58 H23         6.7438  -11.2908   -9.4519 H         1 <0>         0.1335
     59 H24         8.7680  -12.6134   -9.0315 H         1 <0>         0.1338
@<TRIPOS>BOND
     1    1   10 ar
     2    1    2 ar
     3    1   36 1
     4    2    3 ar
     5    2   37 1
     6    3    4 ar
     7    3   38 1
     8    4    9 ar
     9    4    5 ar
    10    5    6 ar
    11    5   39 1
    12    6    7 ar
    13    6   11 1
    14    7    8 ar
    15    7   40 1
    16    8    9 ar
    17    8   41 1
    18    9   10 ar
    19   10   42 1
    20   11   12 2
    21   11   13 am
    22   13   18 1
    23   13   14 1
    24   14   15 1
    25   14   43 1
    26   14   44 1
    27   15   16 1
    28   15   45 1
    29   15   46 1
    30   16   17 1
    31   17   18 1
    32   17   19 1
    33   17   47 1
    34   18   48 1
    35   18   49 1
    36   19   20 1
    37   19   50 1
    38   19   51 1
    39   20   21 1
    40   20   52 1
    41   21   26 ar
    42   21   22 ar
    43   22   23 ar
    44   23   24 ar
    45   23   53 1
    46   24   25 ar
    47   24   54 1
    48   25   26 ar
    49   25   27 1
    50   27   31 1
    51   27   28 1
    52   28   29 2
    53   28   55 1
    54   29   30 1
    55   30   35 ar
    56   30   31 ar
    57   31   32 ar
    58   32   33 ar
    59   32   56 1
    60   33   34 ar
    61   33   57 1
    62   34   35 ar
    63   34   58 1
    64   35   59 1
@<TRIPOS>MOLECULE
CHEMBL568542
   54    57     0     0     0
SMALL
USER_CHARGES

@<TRIPOS>ATOM
      1 C1         -0.0187    1.5258    0.0104 C.3       1 <0>        -0.1518
      2 C2          0.0021   -0.0041    0.0020 C.3       1 <0>         0.1651
      3 C3          0.7182   -0.4975   -1.2568 C.3       1 <0>         0.0614
      4 C4          0.7422   -2.0297   -1.2641 C.3       1 <0>         0.0893
      5 N1          1.5617   -2.4787   -2.3999 N.pl3     1 <0>        -1.0006
      6 C5          2.9082   -1.9077   -2.5553 C.3       1 <0>         0.0808
      7 C6          2.7989   -0.3803   -2.4972 C.3       1 <0>         0.0403
      8 N2          2.0965    0.0107   -1.2677 N.3       1 <0>        -0.5180
      9 C7          2.8316   -0.4356   -0.0768 C.3       1 <0>         0.0055
     10 S1          0.9838   -3.5979   -3.4750 S.o2      1 <0>         2.6072
     11 O1          2.1438   -4.2265   -4.0026 O.2       1 <0>        -0.9509
     12 O2          0.0255   -4.3462   -2.7394 O.2       1 <0>        -0.9507
     13 C8          0.1598   -2.6237   -4.7644 C.3       1 <0>        -0.6733
     14 N3         -1.3723   -0.5112    0.0124 N.pl3     1 <0>        -0.6918
     15 C9         -2.0463   -0.6591    1.2122 C.ar      1 <0>         0.6035
     16 N4         -1.4348   -0.3320    2.3413 N.ar      1 <0>        -0.5731
     17 C10        -2.0477   -0.4595    3.5081 C.ar      1 <0>         0.2232
     18 C11        -3.3434   -0.9410    3.5421 C.ar      1 <0>        -0.3064
     19 C12        -3.9603   -1.2767    2.3375 C.ar      1 <0>         0.4507
     20 N5         -3.2882   -1.1189    1.2027 N.ar      1 <0>        -0.5915
     21 N6         -5.2648   -1.7662    2.3239 N.pl3     1 <0>        -0.4406
     22 C13        -6.0661   -1.9653    3.4101 C.2       1 <0>         0.2753
     23 N7         -7.2201   -2.4316    3.0334 N.2       1 <0>        -0.4709
     24 C14        -7.2421   -2.5649    1.6816 C.ar      1 <0>         0.0429
     25 C15        -5.9917   -2.1355    1.2058 C.ar      1 <0>         0.0571
     26 C16        -5.7247   -2.1543   -0.1551 C.ar      1 <0>        -0.0895
     27 C17        -6.6898   -2.5923   -1.0376 C.ar      1 <0>        -0.1033
     28 C18        -7.9272   -3.0140   -0.5734 C.ar      1 <0>        -0.1198
     29 C19        -8.2069   -3.0097    0.7745 C.ar      1 <0>        -0.0661
     30 H1          1.0039    1.9031    0.0027 H         1 <0>         0.0808
     31 H2         -0.5459    1.8868   -0.8726 H         1 <0>         0.0534
     32 H3         -0.5289    1.8773    0.9072 H         1 <0>         0.0581
     33 H4          0.5293   -0.3651    0.8851 H         1 <0>         0.1009
     34 H5          0.1908   -0.1374   -2.1401 H         1 <0>         0.0947
     35 H6          1.1764   -2.3935   -0.3328 H         1 <0>         0.0795
     36 H7         -0.2731   -2.4113   -1.3716 H         1 <0>         0.0949
     37 H8          3.5506   -2.2598   -1.7482 H         1 <0>         0.0786
     38 H9          3.3248   -2.2087   -3.5165 H         1 <0>         0.0985
     39 H10         3.7977    0.0562   -2.5000 H         1 <0>         0.0963
     40 H11         2.2426   -0.0223   -3.3635 H         1 <0>         0.0826
     41 H12         2.8609   -1.5250   -0.0550 H         1 <0>         0.0362
     42 H13         3.8488   -0.0453   -0.1102 H         1 <0>         0.0751
     43 H14         2.3305   -0.0677    0.8186 H         1 <0>         0.0767
     44 H15         0.8818   -1.9527   -5.2299 H         1 <0>         0.1284
     45 H16        -0.2522   -3.2940   -5.5187 H         1 <0>         0.1305
     46 H17        -0.6452   -2.0389   -4.3193 H         1 <0>         0.1267
     47 H18        -1.8100   -0.7432   -0.8215 H         1 <0>         0.4120
     48 H19        -1.5410   -0.1906    4.4232 H         1 <0>         0.1795
     49 H20        -3.8658   -1.0549    4.4805 H         1 <0>         0.1512
     50 H21        -5.7833   -1.7652    4.4330 H         1 <0>         0.2232
     51 H22        -4.7636   -1.8266   -0.5228 H         1 <0>         0.1383
     52 H23        -6.4810   -2.6066   -2.0971 H         1 <0>         0.1327
     53 H24        -8.6748   -3.3544   -1.2746 H         1 <0>         0.1333
     54 H25        -9.1728   -3.3384    1.1285 H         1 <0>         0.1337
@<TRIPOS>BOND
     1    1    2 1
     2    1   30 1
     3    1   31 1
     4    1   32 1
     5    2    3 1
     6    2   14 1
     7    2   33 1
     8    3    8 1
     9    3    4 1
    10    3   34 1
    11    4    5 1
    12    4   35 1
    13    4   36 1
    14    5    6 1
    15    5   10 1
    16    6    7 1
    17    6   37 1
    18    6   38 1
    19    7    8 1
    20    7   39 1
    21    7   40 1
    22    8    9 1
    23    9   41 1
    24    9   42 1
    25    9   43 1
    26   10   11 2
    27   10   12 2
    28   10   13 1
    29   13   44 1
    30   13   45 1
    31   13   46 1
    32   14   15 1
    33   14   47 1
    34   15   20 ar
    35   15   16 ar
    36   16   17 ar
    37   17   18 ar
    38   17   48 1
    39   18   19 ar
    40   18   49 1
    41   19   20 ar
    42   19   21 1
    43   21   25 1
    44   21   22 1
    45   22   23 2
    46   22   50 1
    47   23   24 1
    48   24   29 ar
    49   24   25 ar
    50   25   26 ar
    51   26   27 ar
    52   26   51 1
    53   27   28 ar
    54   27   52 1
    55   28   29 ar
    56   28   53 1
    57   29   54 1
@<TRIPOS>MOLECULE
CHEMBL568542__1
   54    57     0     0     0
SMALL
USER_CHARGES

@<TRIPOS>ATOM
      1 C1         -0.3758    0.9681   -0.1315 C.3       1 <0>        -0.1565
      2 C2          0.0555   -0.4940   -0.0011 C.3       1 <0>         0.1630
      3 C3          0.9279   -0.8772   -1.1981 C.3       1 <0>         0.0667
      4 C4          0.1023   -0.7777   -2.4853 C.3       1 <0>         0.1204
      5 N1          0.9955   -1.0035   -3.6318 N.pl3     1 <0>        -1.0018
      6 C5          2.2359   -0.2173   -3.7130 C.3       1 <0>         0.1202
      7 C6          2.9775   -0.3388   -2.3775 C.3       1 <0>         0.0443
      8 N2          2.0734    0.0386   -1.2829 N.3       1 <0>        -0.5269
      9 C7          2.7930    0.1015   -0.0038 C.3       1 <0>         0.0157
     10 S1          0.6143   -2.1130   -4.8006 S.o2      1 <0>         2.6061
     11 O1          1.8652   -2.5091   -5.3462 O.2       1 <0>        -0.9520
     12 O2         -0.2219   -3.0569   -4.1456 O.2       1 <0>        -0.9528
     13 C8         -0.3386   -1.1833   -6.0328 C.3       1 <0>        -0.6721
     14 N3         -1.1314   -1.3521    0.0327 N.pl3     1 <0>        -0.6909
     15 C9         -1.7555   -1.6229    1.2379 C.ar      1 <0>         0.6032
     16 N4         -1.2690   -1.0931    2.3508 N.ar      1 <0>        -0.5743
     17 C10        -1.8394   -1.3292    3.5222 C.ar      1 <0>         0.2231
     18 C11        -2.9577   -2.1404    3.5784 C.ar      1 <0>        -0.3073
     19 C12        -3.4462   -2.6833    2.3905 C.ar      1 <0>         0.4506
     20 N5         -2.8274   -2.4006    1.2496 N.ar      1 <0>        -0.5912
     21 N6         -4.5703   -3.5066    2.3995 N.pl3     1 <0>        -0.4406
     22 C13        -5.3018   -3.8660    3.4936 C.2       1 <0>         0.2747
     23 N7         -6.2827   -4.6427    3.1389 N.2       1 <0>        -0.4710
     24 C14        -6.2510   -4.8369    1.7946 C.ar      1 <0>         0.0425
     25 C15        -5.1567   -4.1077    1.2996 C.ar      1 <0>         0.0568
     26 C16        -4.8775   -4.1143   -0.0590 C.ar      1 <0>        -0.0894
     27 C17        -5.6778   -4.8351   -0.9203 C.ar      1 <0>        -0.1027
     28 C18        -6.7615   -5.5540   -0.4373 C.ar      1 <0>        -0.1196
     29 C19        -7.0488   -5.5653    0.9090 C.ar      1 <0>        -0.0666
     30 H1          0.5073    1.6066   -0.1567 H         1 <0>         0.0819
     31 H2         -0.9446    1.0984   -1.0522 H         1 <0>         0.0569
     32 H3         -0.9973    1.2411    0.7213 H         1 <0>         0.0575
     33 H4          0.6243   -0.6243    0.9196 H         1 <0>         0.1029
     34 H5          1.2874   -1.8987   -1.0741 H         1 <0>         0.0569
     35 H6         -0.6814   -1.5352   -2.4770 H         1 <0>         0.0930
     36 H7         -0.3439    0.2141   -2.5584 H         1 <0>         0.0869
     37 H8          2.8627   -0.6042   -4.5164 H         1 <0>         0.1005
     38 H9          1.9947    0.8284   -3.9042 H         1 <0>         0.0804
     39 H10         3.3084   -1.3678   -2.2376 H         1 <0>         0.0434
     40 H11         3.8423    0.3247   -2.3801 H         1 <0>         0.0942
     41 H12         3.0584   -0.9069    0.3137 H         1 <0>         0.0293
     42 H13         3.6994    0.6945   -0.1256 H         1 <0>         0.0738
     43 H14         2.1550    0.5635    0.7496 H         1 <0>         0.0782
     44 H15         0.2734   -0.3734   -6.4299 H         1 <0>         0.1289
     45 H16        -0.6306   -1.8496   -6.8445 H         1 <0>         0.1295
     46 H17        -1.2311   -0.7683   -5.5645 H         1 <0>         0.1280
     47 H18        -1.4799   -1.7304   -0.7897 H         1 <0>         0.4133
     48 H19        -1.4354   -0.8932    4.4239 H         1 <0>         0.1793
     49 H20        -3.4417   -2.3492    4.5210 H         1 <0>         0.1512
     50 H21        -5.0962   -3.5518    4.5062 H         1 <0>         0.2230
     51 H22        -4.0358   -3.5560   -0.4414 H         1 <0>         0.1390
     52 H23        -5.4597   -4.8396   -1.9781 H         1 <0>         0.1336
     53 H24        -7.3809   -6.1142   -1.1220 H         1 <0>         0.1334
     54 H25        -7.8947   -6.1264    1.2778 H         1 <0>         0.1334
@<TRIPOS>BOND
     1    1    2 1
     2    1   30 1
     3    1   31 1
     4    1   32 1
     5    2    3 1
     6    2   14 1
     7    2   33 1
     8    3    8 1
     9    3    4 1
    10    3   34 1
    11    4    5 1
    12    4   35 1
    13    4   36 1
    14    5    6 1
    15    5   10 1
    16    6    7 1
    17    6   37 1
    18    6   38 1
    19    7    8 1
    20    7   39 1
    21    7   40 1
    22    8    9 1
    23    9   41 1
    24    9   42 1
    25    9   43 1
    26   10   11 2
    27   10   12 2
    28   10   13 1
    29   13   44 1
    30   13   45 1
    31   13   46 1
    32   14   15 1
    33   14   47 1
    34   15   20 ar
    35   15   16 ar
    36   16   17 ar
    37   17   18 ar
    38   17   48 1
    39   18   19 ar
    40   18   49 1
    41   19   20 ar
    42   19   21 1
    43   21   25 1
    44   21   22 1
    45   22   23 2
    46   22   50 1
    47   23   24 1
    48   24   29 ar
    49   24   25 ar
    50   25   26 ar
    51   26   27 ar
    52   26   51 1
    53   27   28 ar
    54   27   52 1
    55   28   29 ar
    56   28   53 1
    57   29   54 1
@<TRIPOS>MOLECULE
CHEMBL568542__2
   54    57     0     0     0
SMALL
USER_CHARGES

@<TRIPOS>ATOM
      1 C1         -0.0187    1.5258    0.0104 C.3       1 <0>        -0.1703
      2 C2          0.0021   -0.0041    0.0020 C.3       1 <0>         0.1670
      3 C3         -1.4333   -0.5336    0.0129 C.3       1 <0>         0.0575
      4 C4         -2.1107   -0.1478    1.3321 C.3       1 <0>         0.0915
      5 N1         -3.4321   -0.7916    1.3846 N.pl3     1 <0>        -0.9997
      6 C5         -3.5123   -2.2377    1.1286 C.3       1 <0>         0.0815
      7 C6         -2.7797   -2.5412   -0.1827 C.3       1 <0>         0.0392
      8 N2         -1.4169   -1.9969   -0.1158 N.3       1 <0>        -0.5231
      9 C7         -0.6570   -2.6133    0.9799 C.3       1 <0>         0.0125
     10 S1         -4.7934    0.0884    1.7234 S.o2      1 <0>         2.6096
     11 O1         -5.7008   -0.8495    2.2859 O.2       1 <0>        -0.9508
     12 O2         -4.3298    1.1945    2.4855 O.2       1 <0>        -0.9508
     13 C8         -5.3983    0.6518    0.1087 C.3       1 <0>        -0.6735
     14 N3          0.6878   -0.4765   -1.2033 N.pl3     1 <0>        -0.6720
     15 C9          2.0671   -0.5899   -1.2152 C.ar      1 <0>         0.6034
     16 N4          2.7509   -0.2720   -0.1257 N.ar      1 <0>        -0.5779
     17 C10         4.0713   -0.3681   -0.0994 C.ar      1 <0>         0.2234
     18 C11         4.7398   -0.8070   -1.2275 C.ar      1 <0>        -0.3109
     19 C12         3.9927   -1.1340   -2.3585 C.ar      1 <0>         0.4506
     20 N5          2.6702   -1.0187   -2.3135 N.ar      1 <0>        -0.5914
     21 N6          4.6242   -1.5801   -3.5178 N.pl3     1 <0>        -0.4403
     22 C13         5.9661   -1.7528   -3.6935 C.2       1 <0>         0.2751
     23 N7          6.2067   -2.1815   -4.8974 N.2       1 <0>        -0.4718
     24 C14         5.0391   -2.3143   -5.5791 C.ar      1 <0>         0.0425
     25 C15         4.0069   -1.9363   -4.7039 C.ar      1 <0>         0.0574
     26 C16         2.6877   -1.9769   -5.1302 C.ar      1 <0>        -0.0885
     27 C17         2.3934   -2.3915   -6.4122 C.ar      1 <0>        -0.1039
     28 C18         3.4084   -2.7691   -7.2792 C.ar      1 <0>        -0.1202
     29 C19         4.7239   -2.7276   -6.8758 C.ar      1 <0>        -0.0668
     30 H1          1.0039    1.9031    0.0027 H         1 <0>         0.0688
     31 H2         -0.5459    1.8868   -0.8726 H         1 <0>         0.0593
     32 H3         -0.5289    1.8773    0.9072 H         1 <0>         0.0722
     33 H4          0.5293   -0.3651    0.8851 H         1 <0>         0.0995
     34 H5         -1.9868   -0.1014   -0.8207 H         1 <0>         0.0959
     35 H6         -1.5031   -0.4904    2.1697 H         1 <0>         0.0824
     36 H7         -2.2287    0.9347    1.3803 H         1 <0>         0.1018
     37 H8         -3.0394   -2.7811    1.9465 H         1 <0>         0.0782
     38 H9         -4.5569   -2.5369    1.0421 H         1 <0>         0.0983
     39 H10        -2.7336   -3.6199   -0.3323 H         1 <0>         0.0933
     40 H11        -3.3149   -2.0810   -1.0133 H         1 <0>         0.0819
     41 H12        -1.1164   -2.3514    1.9330 H         1 <0>         0.0367
     42 H13        -0.6608   -3.6967    0.8602 H         1 <0>         0.0702
     43 H14         0.3702   -2.2491    0.9594 H         1 <0>         0.0718
     44 H15        -5.6221   -0.2122   -0.5171 H         1 <0>         0.1278
     45 H16        -6.3025    1.2448    0.2461 H         1 <0>         0.1302
     46 H17        -4.6338    1.2612   -0.3732 H         1 <0>         0.1273
     47 H18         0.1751   -0.7099   -1.9930 H         1 <0>         0.4175
     48 H19         4.6201   -0.1064    0.7932 H         1 <0>         0.1777
     49 H20         5.8163   -0.8940   -1.2325 H         1 <0>         0.1496
     50 H21         6.7184   -1.5612   -2.9427 H         1 <0>         0.2228
     51 H22         1.8928   -1.6849   -4.4599 H         1 <0>         0.1391
     52 H23         1.3659   -2.4228   -6.7433 H         1 <0>         0.1325
     53 H24         3.1651   -3.0923   -8.2806 H         1 <0>         0.1330
     54 H25         5.5088   -3.0240   -7.5558 H         1 <0>         0.1332
@<TRIPOS>BOND
     1    1    2 1
     2    1   30 1
     3    1   31 1
     4    1   32 1
     5    2    3 1
     6    2   14 1
     7    2   33 1
     8    3    8 1
     9    3    4 1
    10    3   34 1
    11    4    5 1
    12    4   35 1
    13    4   36 1
    14    5    6 1
    15    5   10 1
    16    6    7 1
    17    6   37 1
    18    6   38 1
    19    7    8 1
    20    7   39 1
    21    7   40 1
    22    8    9 1
    23    9   41 1
    24    9   42 1
    25    9   43 1
    26   10   11 2
    27   10   12 2
    28   10   13 1
    29   13   44 1
    30   13   45 1
    31   13   46 1
    32   14   15 1
    33   14   47 1
    34   15   20 ar
    35   15   16 ar
    36   16   17 ar
    37   17   18 ar
    38   17   48 1
    39   18   19 ar
    40   18   49 1
    41   19   20 ar
    42   19   21 1
    43   21   25 1
    44   21   22 1
    45   22   23 2
    46   22   50 1
    47   23   24 1
    48   24   29 ar
    49   24   25 ar
    50   25   26 ar
    51   26   27 ar
    52   26   51 1
    53   27   28 ar
    54   27   52 1
    55   28   29 ar
    56   28   53 1
    57   29   54 1
@<TRIPOS>MOLECULE
CHEMBL568542__3
   54    57     0     0     0
SMALL
USER_CHARGES

@<TRIPOS>ATOM
      1 C1         -0.5918    1.7220    0.2329 C.3       1 <0>        -0.1693
      2 C2         -0.3218    0.2185    0.3198 C.3       1 <0>         0.1652
      3 C3         -1.6507   -0.5397    0.3117 C.3       1 <0>         0.0639
      4 C4         -2.4174   -0.2138   -0.9745 C.3       1 <0>         0.1239
      5 N1         -3.6164   -1.0639   -1.0318 N.pl3     1 <0>        -1.0021
      6 C5         -3.4515   -2.5132   -0.8430 C.3       1 <0>         0.1201
      7 C6         -2.6441   -2.7485    0.4380 C.3       1 <0>         0.0439
      8 N2         -1.3913   -1.9844    0.3706 N.3       1 <0>        -0.5325
      9 C7         -0.5113   -2.3155    1.4993 C.3       1 <0>         0.0234
     10 S1         -5.1121   -0.4067   -1.3022 S.o2      1 <0>         2.6076
     11 O1         -6.0225   -1.3184   -0.7029 O.2       1 <0>        -0.9521
     12 O2         -5.0110    0.9305   -0.8320 O.2       1 <0>        -0.9525
     13 C8         -5.3088   -0.4217   -3.1055 C.3       1 <0>        -0.6724
     14 N3          0.4860   -0.1997   -0.8285 N.pl3     1 <0>        -0.6746
     15 C9          1.8645   -0.0841   -0.7838 C.ar      1 <0>         0.6030
     16 N4          2.4369    0.4020    0.3080 N.ar      1 <0>        -0.5771
     17 C10         3.7528    0.5270    0.3877 C.ar      1 <0>         0.2235
     18 C11         4.5346    0.1433   -0.6863 C.ar      1 <0>        -0.3105
     19 C12         3.9032   -0.3645   -1.8211 C.ar      1 <0>         0.4505
     20 N5          2.5790   -0.4670   -1.8310 N.ar      1 <0>        -0.5918
     21 N6          4.6512   -0.7631   -2.9271 N.pl3     1 <0>        -0.4402
     22 C13         6.0099   -0.7210   -3.0434 C.2       1 <0>         0.2754
     23 N7          6.3719   -1.1696   -4.2091 N.2       1 <0>        -0.4719
     24 C14         5.2738   -1.5309   -4.9229 C.ar      1 <0>         0.0426
     25 C15         4.1550   -1.2812   -4.1105 C.ar      1 <0>         0.0576
     26 C16         2.8809   -1.5627   -4.5807 C.ar      1 <0>        -0.0886
     27 C17         2.7169   -2.0902   -5.8444 C.ar      1 <0>        -0.1040
     28 C18         3.8184   -2.3419   -6.6492 C.ar      1 <0>        -0.1203
     29 C19         5.0898   -2.0613   -6.2020 C.ar      1 <0>        -0.0666
     30 H1          0.3434    2.2670    0.3607 H         1 <0>         0.0688
     31 H2         -1.0201    1.9585   -0.7411 H         1 <0>         0.0612
     32 H3         -1.2911    2.0114    1.0173 H         1 <0>         0.0719
     33 H4          0.2163   -0.0013    1.2419 H         1 <0>         0.1023
     34 H5         -2.2450   -0.2413    1.1753 H         1 <0>         0.0693
     35 H6         -2.7125    0.8355   -0.9691 H         1 <0>         0.1047
     36 H7         -1.7846   -0.4147   -1.8389 H         1 <0>         0.0738
     37 H8         -4.4302   -2.9840   -0.7506 H         1 <0>         0.1005
     38 H9         -2.9180   -2.9350   -1.6948 H         1 <0>         0.0788
     39 H10        -3.2249   -2.4194    1.2997 H         1 <0>         0.0437
     40 H11        -2.4178   -3.8102    0.5354 H         1 <0>         0.0911
     41 H12        -0.9261   -1.8998    2.4176 H         1 <0>         0.0299
     42 H13        -0.4333   -3.3987    1.5936 H         1 <0>         0.0695
     43 H14         0.4785   -1.8939    1.3243 H         1 <0>         0.0723
     44 H15        -5.2473   -1.4474   -3.4691 H         1 <0>         0.1286
     45 H16        -6.2790   -0.0004   -3.3686 H         1 <0>         0.1293
     46 H17        -4.5182    0.1737   -3.5622 H         1 <0>         0.1278
     47 H18         0.0548   -0.5577   -1.6203 H         1 <0>         0.4154
     48 H19         4.2102    0.9246    1.2816 H         1 <0>         0.1777
     49 H20         5.6100    0.2353   -0.6472 H         1 <0>         0.1496
     50 H21         6.6859   -0.3667   -2.2793 H         1 <0>         0.2228
     51 H22         2.0193   -1.3696   -3.9587 H         1 <0>         0.1387
     52 H23         1.7244   -2.3090   -6.2097 H         1 <0>         0.1322
     53 H24         3.6770   -2.7555   -7.6368 H         1 <0>         0.1329
     54 H25         5.9428   -2.2609   -6.8337 H         1 <0>         0.1333
@<TRIPOS>BOND
     1    1    2 1
     2    1   30 1
     3    1   31 1
     4    1   32 1
     5    2    3 1
     6    2   14 1
     7    2   33 1
     8    3    8 1
     9    3    4 1
    10    3   34 1
    11    4    5 1
    12    4   35 1
    13    4   36 1
    14    5    6 1
    15    5   10 1
    16    6    7 1
    17    6   37 1
    18    6   38 1
    19    7    8 1
    20    7   39 1
    21    7   40 1
    22    8    9 1
    23    9   41 1
    24    9   42 1
    25    9   43 1
    26   10   11 2
    27   10   12 2
    28   10   13 1
    29   13   44 1
    30   13   45 1
    31   13   46 1
    32   14   15 1
    33   14   47 1
    34   15   20 ar
    35   15   16 ar
    36   16   17 ar
    37   17   18 ar
    38   17   48 1
    39   18   19 ar
    40   18   49 1
    41   19   20 ar
    42   19   21 1
    43   21   25 1
    44   21   22 1
    45   22   23 2
    46   22   50 1
    47   23   24 1
    48   24   29 ar
    49   24   25 ar
    50   25   26 ar
    51   26   27 ar
    52   26   51 1
    53   27   28 ar
    54   27   52 1
    55   28   29 ar
    56   28   53 1
    57   29   54 1
@<TRIPOS>MOLECULE
CHEMBL1163016
   69    73     0     0     0
SMALL
USER_CHARGES

@<TRIPOS>ATOM
      1 C1          1.3620    0.8394    1.4243 C.3       1 <0>        -0.1352
      2 C2          1.2135   -0.6867    1.2356 C.3       1 <0>         0.1465
      3 C3          1.8259   -1.0446   -0.1164 C.3       1 <0>        -0.1174
      4 C4          1.9668   -2.5608   -0.2506 C.3       1 <0>         0.1435
      5 C5          2.8805   -3.0633    0.8671 C.3       1 <0>        -0.1171
      6 C6          2.2835   -2.7289    2.2319 C.3       1 <0>         0.1089
      7 N1          1.8702   -1.3458    2.3451 N.3       1 <0>        -0.3867
      8 O1          1.2102   -1.0691    3.6211 O.3       1 <0>        -0.4027
      9 C7          3.3734   -2.9951    3.2941 C.3       1 <0>        -0.1436
     10 C8          1.1188   -3.6810    2.5288 C.3       1 <0>        -0.1776
     11 N2          2.5733   -2.8769   -1.5498 N.am      1 <0>        -0.7239
     12 C9          2.3539   -4.0775   -2.1216 C.2       1 <0>         0.5611
     13 O2          1.6539   -4.8985   -1.5618 O.2       1 <0>        -0.5274
     14 C10         2.9646   -4.3959   -3.4300 C.ar      1 <0>        -0.1387
     15 C11         3.7738   -3.4561   -4.0722 C.ar      1 <0>        -0.0734
     16 C12         4.3440   -3.7531   -5.2934 C.ar      1 <0>        -0.1251
     17 C13         4.1183   -4.9799   -5.8875 C.ar      1 <0>        -0.0615
     18 C14         3.3125   -5.9263   -5.2565 C.ar      1 <0>        -0.0289
     19 C15         2.7390   -5.6368   -4.0230 C.ar      1 <0>        -0.0247
     20 C16         3.0711   -7.2432   -5.8978 C.2       1 <0>         0.1538
     21 C17         3.6713   -7.6988   -7.0754 C.2       1 <0>        -0.2499
     22 C18         3.1793   -8.9691   -7.3318 C.2       1 <0>         0.2717
     23 N3          3.4165   -9.8485   -8.3168 N.2       1 <0>        -0.4716
     24 C19         2.8133  -11.0166   -8.3419 C.2       1 <0>         0.1961
     25 C20         1.9092  -11.3659   -7.3386 C.2       1 <0>        -0.2432
     26 C21         1.6552  -10.4809   -6.3259 C.2       1 <0>         0.4356
     27 N4          2.2984   -9.2710   -6.3248 N.pl3     1 <0>        -0.3231
     28 N5          2.2579   -8.1815   -5.4476 N.2       1 <0>        -0.2849
     29 N6          0.7652  -10.8019   -5.3220 N.pl3     1 <0>        -0.6745
     30 C22        -0.3461   -9.9876   -5.0867 C.ar      1 <0>         0.2057
     31 C23        -0.6401   -8.9434   -5.9554 C.ar      1 <0>        -0.1630
     32 C24        -1.7383   -8.1389   -5.7226 C.ar      1 <0>        -0.0610
     33 C25        -2.5478   -8.3700   -4.6264 C.ar      1 <0>        -0.1747
     34 C26        -2.2595   -9.4115   -3.7558 C.ar      1 <0>         0.1463
     35 C27        -1.1610  -10.2243   -3.9883 C.ar      1 <0>        -0.1921
     36 O3         -3.0562   -9.6371   -2.6781 O.3       1 <0>        -0.4962
     37 C28        -0.2879   -0.9975    1.2166 C.3       1 <0>        -0.1767
     38 H1          2.4197    1.1020    1.4430 H         1 <0>         0.0607
     39 H2          0.8737    1.3569    0.5985 H         1 <0>         0.0583
     40 H3          0.8973    1.1362    2.3646 H         1 <0>         0.0648
     41 H4          1.1854   -0.6679   -0.9169 H         1 <0>         0.0862
     42 H5          2.8105   -0.5799   -0.2041 H         1 <0>         0.0811
     43 H6          0.9932   -3.0397   -0.1893 H         1 <0>         0.0950
     44 H7          3.0004   -4.1454    0.7781 H         1 <0>         0.0817
     45 H8          3.8610   -2.5911    0.7735 H         1 <0>         0.0762
     46 H9          1.6279   -1.4971    4.3810 H         1 <0>         0.3761
     47 H10         4.2391   -2.3642    3.0924 H         1 <0>         0.0657
     48 H11         2.9795   -2.7658    4.2843 H         1 <0>         0.0561
     49 H12         3.6706   -4.0431    3.2550 H         1 <0>         0.0651
     50 H13         1.4818   -4.7088    2.5334 H         1 <0>         0.0638
     51 H14         0.6931   -3.4416    3.5033 H         1 <0>         0.0613
     52 H15         0.3534   -3.5694    1.7607 H         1 <0>         0.0587
     53 H16         3.1318   -2.2217   -1.9966 H         1 <0>         0.4002
     54 H17         3.9534   -2.4954   -3.6126 H         1 <0>         0.1294
     55 H18         4.9688   -3.0234   -5.7869 H         1 <0>         0.1381
     56 H19         4.5670   -5.2061   -6.8435 H         1 <0>         0.1372
     57 H20         2.1176   -6.3689   -3.5287 H         1 <0>         0.1431
     58 H21         4.3878   -7.1588   -7.6766 H         1 <0>         0.1660
     59 H22         3.0188  -11.7097   -9.1443 H         1 <0>         0.1853
     60 H23         1.4140  -12.3254   -7.3609 H         1 <0>         0.1698
     61 H24         0.9106  -11.5927   -4.7795 H         1 <0>         0.4259
     62 H25        -0.0092   -8.7606   -6.8127 H         1 <0>         0.1118
     63 H26        -1.9648   -7.3274   -6.3983 H         1 <0>         0.1291
     64 H27        -3.4056   -7.7389   -4.4469 H         1 <0>         0.1306
     65 H28        -0.9373  -11.0376   -3.3139 H         1 <0>         0.1321
     66 H29        -3.7877  -10.2456   -2.8503 H         1 <0>         0.3931
     67 H30        -0.7595   -0.4617    0.3928 H         1 <0>         0.0609
     68 H31        -0.4354   -2.0694    1.0847 H         1 <0>         0.0547
     69 H32        -0.7361   -0.6824    2.1589 H         1 <0>         0.0677
@<TRIPOS>BOND
     1    1    2 1
     2    1   38 1
     3    1   39 1
     4    1   40 1
     5    2    7 1
     6    2    3 1
     7    2   37 1
     8    3    4 1
     9    3   41 1
    10    3   42 1
    11    4    5 1
    12    4   11 1
    13    4   43 1
    14    5    6 1
    15    5   44 1
    16    5   45 1
    17    6    7 1
    18    6    9 1
    19    6   10 1
    20    7    8 1
    21    8   46 1
    22    9   47 1
    23    9   48 1
    24    9   49 1
    25   10   50 1
    26   10   51 1
    27   10   52 1
    28   11   12 am
    29   11   53 1
    30   12   13 2
    31   12   14 1
    32   14   19 ar
    33   14   15 ar
    34   15   16 ar
    35   15   54 1
    36   16   17 ar
    37   16   55 1
    38   17   18 ar
    39   17   56 1
    40   18   19 ar
    41   18   20 1
    42   19   57 1
    43   20   28 2
    44   20   21 1
    45   21   22 2
    46   21   58 1
    47   22   27 1
    48   22   23 1
    49   23   24 2
    50   24   25 1
    51   24   59 1
    52   25   26 2
    53   25   60 1
    54   26   27 1
    55   26   29 1
    56   27   28 1
    57   29   30 1
    58   29   61 1
    59   30   35 ar
    60   30   31 ar
    61   31   32 ar
    62   31   62 1
    63   32   33 ar
    64   32   63 1
    65   33   34 ar
    66   33   64 1
    67   34   35 ar
    68   34   36 1
    69   35   65 1
    70   36   66 1
    71   37   67 1
    72   37   68 1
    73   37   69 1
@<TRIPOS>MOLECULE
CHEMBL431407
   75    80     0     0     0
SMALL
USER_CHARGES

@<TRIPOS>ATOM
      1 C1         -2.7679    1.2309   -0.9243 C.3       1 <0>        -0.0458
      2 N1         -2.5434   -0.2196   -0.8650 N.4       1 <0>        -0.3884
      3 C2         -3.7646   -0.8848   -0.3919 C.3       1 <0>        -0.0020
      4 C3         -3.5373   -2.3974   -0.3479 C.3       1 <0>         0.0200
      5 N2         -2.4156   -2.6954    0.5539 N.3       1 <0>        -0.5346
      6 C4         -1.1916   -2.0159    0.1066 C.3       1 <0>         0.0194
      7 C5         -1.4382   -0.5063    0.0589 C.3       1 <0>        -0.0021
      8 C6         -2.2019   -4.1444    0.6672 C.3       1 <0>         0.0859
      9 C7         -3.4659   -4.8045    1.2218 C.3       1 <0>        -0.1098
     10 C8         -3.2432   -6.3136    1.3398 C.3       1 <0>        -0.1271
     11 C9         -2.0704   -6.5837    2.2845 C.3       1 <0>         0.1747
     12 C10        -0.8064   -5.9236    1.7300 C.3       1 <0>        -0.1265
     13 C11        -1.0290   -4.4145    1.6119 C.3       1 <0>        -0.1113
     14 N3         -1.8572   -8.0287    2.3975 N.pl3     1 <0>        -0.3798
     15 C12        -1.9328   -8.7477    3.5531 C.ar      1 <0>         0.3764
     16 C13        -1.6625  -10.0881    3.2191 C.ar      1 <0>        -0.3255
     17 C14        -1.4201  -10.1145    1.7768 C.2       1 <0>         0.1888
     18 N4         -1.5505   -8.8858    1.3353 N.2       1 <0>        -0.2452
     19 C15        -1.0932  -11.3096    0.9633 C.ar      1 <0>        -0.0548
     20 C16        -1.8086  -12.4929    1.1426 C.ar      1 <0>        -0.0868
     21 C17        -1.5040  -13.6054    0.3857 C.ar      1 <0>        -0.1677
     22 C18        -0.4850  -13.5496   -0.5557 C.ar      1 <0>         0.2163
     23 C19         0.2330  -12.3685   -0.7390 C.ar      1 <0>         0.0603
     24 C20        -0.0735  -11.2502    0.0137 C.ar      1 <0>        -0.1256
     25 O1          1.2313  -12.3153   -1.6613 O.3       1 <0>        -0.3179
     26 C21         1.9247  -11.0731   -1.7958 C.3       1 <0>         0.0307
     27 N5         -0.1781  -14.6795   -1.3207 N.pl3     1 <0>        -0.7343
     28 C22        -0.9317  -15.9210   -1.1284 C.3       1 <0>         0.2083
     29 C23        -0.4082  -16.9770   -2.0675 C.2       1 <0>        -0.0450
     30 C24         0.5791  -17.8499   -1.7979 C.2       1 <0>        -0.1779
     31 C25         0.7432  -18.6515   -2.9509 C.2       1 <0>        -0.2182
     32 C26        -0.1536  -18.2205   -3.8560 C.2       1 <0>        -0.0243
     33 O2         -0.8521  -17.2099   -3.3134 O.3       1 <0>        -0.1717
     34 C27        -1.6774  -11.0507    4.2415 C.ar      1 <0>         0.5204
     35 N6         -1.9465  -10.6510    5.4808 N.ar      1 <0>        -0.6037
     36 C28        -2.1946   -9.3815    5.7495 C.ar      1 <0>         0.3887
     37 N7         -2.1917   -8.4461    4.8253 N.ar      1 <0>        -0.5793
     38 N8         -1.4192  -12.3797    3.9666 N.pl3     1 <0>        -0.8259
     39 H1         -1.8623    1.7247   -1.2766 H         1 <0>         0.1239
     40 H2         -3.5881    1.4440   -1.6099 H         1 <0>         0.1240
     41 H3         -3.0200    1.6005    0.0697 H         1 <0>         0.1232
     42 H4         -4.0103   -0.5251    0.6073 H         1 <0>         0.1379
     43 H5         -4.5870   -0.6606   -1.0712 H         1 <0>         0.1353
     44 H6         -4.4384   -2.8901    0.0174 H         1 <0>         0.1267
     45 H7         -3.3049   -2.7596   -1.3494 H         1 <0>         0.0605
     46 H8         -0.3813   -2.2301    0.8035 H         1 <0>         0.1272
     47 H9         -0.9205   -2.3717   -0.8874 H         1 <0>         0.0603
     48 H10        -0.5359   -0.0015   -0.2862 H         1 <0>         0.1352
     49 H11        -1.6959   -0.1486    1.0558 H         1 <0>         0.1379
     50 H12        -1.9784   -4.5567   -0.3167 H         1 <0>         0.0567
     51 H13        -3.6894   -4.3921    2.2057 H         1 <0>         0.0820
     52 H14        -4.3014   -4.6120    0.5488 H         1 <0>         0.0714
     53 H15        -4.1437   -6.7839    1.7349 H         1 <0>         0.0763
     54 H16        -3.0197   -6.7260    0.3559 H         1 <0>         0.0784
     55 H17        -2.2939   -6.1714    3.2684 H         1 <0>         0.1112
     56 H18         0.0291   -6.1161    2.4029 H         1 <0>         0.0759
     57 H19        -0.5829   -6.3360    0.7460 H         1 <0>         0.0779
     58 H20        -0.1286   -3.9442    1.2168 H         1 <0>         0.0716
     59 H21        -1.2526   -4.0021    2.5958 H         1 <0>         0.0823
     60 H22        -2.6014  -12.5387    1.8746 H         1 <0>         0.1328
     61 H23        -2.0588  -14.5213    0.5260 H         1 <0>         0.1388
     62 H24         0.4790  -10.3334   -0.1300 H         1 <0>         0.1330
     63 H25         1.2198  -10.2926   -2.0818 H         1 <0>         0.0542
     64 H26         2.3899  -10.8120   -0.8452 H         1 <0>         0.0547
     65 H27         2.6935  -11.1673   -2.5628 H         1 <0>         0.1012
     66 H28         0.5336  -14.6411   -1.9785 H         1 <0>         0.4109
     67 H29        -0.8160  -16.2605   -0.0991 H         1 <0>         0.0943
     68 H30        -1.9867  -15.7415   -1.3354 H         1 <0>         0.0804
     69 H31         1.1394  -17.9238   -0.8775 H         1 <0>         0.1512
     70 H32         1.4528  -19.4554   -3.0802 H         1 <0>         0.1525
     71 H33        -0.2913  -18.6218   -4.8492 H         1 <0>         0.2067
     72 H34        -2.4086   -9.1005    6.7701 H         1 <0>         0.2050
     73 H35        -1.0035  -12.6293    3.1264 H         1 <0>         0.4156
     74 H36        -1.6536  -13.0633    4.6136 H         1 <0>         0.4118
     75 H37        -2.3097   -0.5614   -1.7851 H         1 <0>         0.4222
@<TRIPOS>BOND
     1    1    2 1
     2    1   39 1
     3    1   40 1
     4    1   41 1
     5    2    7 1
     6    2    3 1
     7    2   75 1
     8    3    4 1
     9    3   42 1
    10    3   43 1
    11    4    5 1
    12    4   44 1
    13    4   45 1
    14    5    6 1
    15    5    8 1
    16    6    7 1
    17    6   46 1
    18    6   47 1
    19    7   48 1
    20    7   49 1
    21    8   13 1
    22    8    9 1
    23    8   50 1
    24    9   10 1
    25    9   51 1
    26    9   52 1
    27   10   11 1
    28   10   53 1
    29   10   54 1
    30   11   12 1
    31   11   14 1
    32   11   55 1
    33   12   13 1
    34   12   56 1
    35   12   57 1
    36   13   58 1
    37   13   59 1
    38   14   18 1
    39   14   15 1
    40   15   37 ar
    41   15   16 ar
    42   16   17 1
    43   16   34 ar
    44   17   18 2
    45   17   19 1
    46   19   24 ar
    47   19   20 ar
    48   20   21 ar
    49   20   60 1
    50   21   22 ar
    51   21   61 1
    52   22   23 ar
    53   22   27 1
    54   23   24 ar
    55   23   25 1
    56   24   62 1
    57   25   26 1
    58   26   63 1
    59   26   64 1
    60   26   65 1
    61   27   28 1
    62   27   66 1
    63   28   29 1
    64   28   67 1
    65   28   68 1
    66   29   33 1
    67   29   30 2
    68   30   31 1
    69   30   69 1
    70   31   32 2
    71   31   70 1
    72   32   33 1
    73   32   71 1
    74   34   35 ar
    75   34   38 1
    76   35   36 ar
    77   36   37 ar
    78   36   72 1
    79   38   73 1
    80   38   74 1
@<TRIPOS>MOLECULE
CHEMBL431407__1
   75    80     0     0     0
SMALL
USER_CHARGES

@<TRIPOS>ATOM
      1 C1         -2.7507    1.1843   -1.1216 C.3       1 <0>         0.0194
      2 N1         -2.4998   -0.2605   -1.0347 N.3       1 <0>        -0.5434
      3 C2         -3.7197   -0.9848   -0.6507 C.3       1 <0>         0.0253
      4 C3         -3.4318   -2.4876   -0.6295 C.3       1 <0>        -0.0067
      5 N2         -2.3541   -2.7664    0.3288 N.4       1 <0>        -0.3838
      6 C4         -1.1357   -2.0559   -0.0816 C.3       1 <0>        -0.0066
      7 C5         -1.4046   -0.5495   -0.0982 C.3       1 <0>         0.0254
      8 C6         -2.0904   -4.2111    0.3620 C.3       1 <0>         0.0238
      9 C7         -3.3588   -4.9513    0.7912 C.3       1 <0>        -0.1364
     10 C8         -3.0841   -6.4561    0.8258 C.3       1 <0>        -0.1256
     11 C9         -1.9615   -6.7468    1.8239 C.3       1 <0>         0.1722
     12 C10        -0.6931   -6.0066    1.3947 C.3       1 <0>        -0.1252
     13 C11        -0.9678   -4.5018    1.3601 C.3       1 <0>        -0.1364
     14 N3         -1.6986   -8.1876    1.8571 N.pl3     1 <0>        -0.3854
     15 C12        -1.8161   -8.9842    2.9568 C.ar      1 <0>         0.3779
     16 C13        -1.4730  -10.2889    2.5551 C.ar      1 <0>        -0.3256
     17 C14        -1.1418  -10.2104    1.1325 C.2       1 <0>         0.1986
     18 N4         -1.2936   -8.9604    0.7636 N.2       1 <0>        -0.2496
     19 C15        -0.7185  -11.3362    0.2662 C.ar      1 <0>        -0.0606
     20 C16        -1.3961  -12.5535    0.3230 C.ar      1 <0>        -0.0856
     21 C17        -1.0018  -13.6014   -0.4830 C.ar      1 <0>        -0.1682
     22 C18         0.0699  -13.4467   -1.3520 C.ar      1 <0>         0.2190
     23 C19         0.7504  -12.2313   -1.4128 C.ar      1 <0>         0.0606
     24 C20         0.3542  -11.1773   -0.6107 C.ar      1 <0>        -0.1248
     25 O1          1.8004  -12.0812   -2.2642 O.3       1 <0>        -0.3173
     26 C21         2.4510  -10.8089   -2.2740 C.3       1 <0>         0.0308
     27 N5          0.4677  -14.5114   -2.1670 N.pl3     1 <0>        -0.7331
     28 C22        -0.2464  -15.7890   -2.1035 C.3       1 <0>         0.2080
     29 C23         0.3751  -16.7607   -3.0733 C.2       1 <0>        -0.0465
     30 C24         1.3779  -17.6140   -2.7981 C.2       1 <0>        -0.1770
     31 C25         1.6440  -18.3305   -3.9875 C.2       1 <0>        -0.2183
     32 C26         0.7879  -17.8723   -4.9184 C.2       1 <0>        -0.0233
     33 O2          0.0179  -16.9256   -4.3574 O.3       1 <0>        -0.1717
     34 C27        -1.5122  -11.3175    3.5104 C.ar      1 <0>         0.5219
     35 N6         -1.8725  -11.0113    4.7531 N.ar      1 <0>        -0.6016
     36 C28        -2.1867   -9.7722    5.0866 C.ar      1 <0>         0.3918
     37 N7         -2.1642   -8.7776    4.2266 N.ar      1 <0>        -0.5823
     38 N8         -1.1852  -12.6152    3.1674 N.pl3     1 <0>        -0.8239
     39 H1         -1.8500    1.6891   -1.4708 H         1 <0>         0.0843
     40 H2         -3.5657    1.3701   -1.8211 H         1 <0>         0.0839
     41 H3         -3.0227    1.5657   -0.1374 H         1 <0>         0.0396
     42 H4         -4.0379   -0.6615    0.3405 H         1 <0>         0.0605
     43 H5         -4.5092   -0.7759   -1.3726 H         1 <0>         0.1238
     44 H6         -4.3315   -3.0257   -0.3311 H         1 <0>         0.1375
     45 H7         -3.1268   -2.8131   -1.6241 H         1 <0>         0.1381
     46 H8         -0.3332   -2.2740    0.6230 H         1 <0>         0.1373
     47 H9         -0.8425   -2.3836   -1.0790 H         1 <0>         0.1380
     48 H10        -0.5050   -0.0230   -0.4170 H         1 <0>         0.1237
     49 H11        -1.6846   -0.2190    0.9021 H         1 <0>         0.0605
     50 H12        -1.7908   -4.5487   -0.6302 H         1 <0>         0.1416
     51 H13        -3.6583   -4.6137    1.7834 H         1 <0>         0.0913
     52 H14        -4.1585   -4.7442    0.0801 H         1 <0>         0.0961
     53 H15        -3.9877   -6.9834    1.1316 H         1 <0>         0.0901
     54 H16        -2.7846   -6.7936   -0.1664 H         1 <0>         0.0898
     55 H17        -2.2611   -6.4092    2.8161 H         1 <0>         0.1136
     56 H18         0.1066   -6.2137    2.1058 H         1 <0>         0.0897
     57 H19        -0.3936   -6.3441    0.4025 H         1 <0>         0.0893
     58 H20        -0.0642   -3.9745    1.0543 H         1 <0>         0.0959
     59 H21        -1.2673   -4.1642    2.3523 H         1 <0>         0.0914
     60 H22        -2.2298  -12.6762    0.9985 H         1 <0>         0.1327
     61 H23        -1.5274  -14.5438   -0.4376 H         1 <0>         0.1394
     62 H24         0.8777  -10.2339   -0.6596 H         1 <0>         0.1330
     63 H25         1.7345  -10.0366   -2.5535 H         1 <0>         0.0542
     64 H26         2.8463  -10.5954   -1.2809 H         1 <0>         0.0545
     65 H27         3.2684  -10.8243   -2.9949 H         1 <0>         0.1020
     66 H28         1.2163  -14.4040   -2.7744 H         1 <0>         0.4116
     67 H29        -0.1807  -16.1922   -1.0929 H         1 <0>         0.0946
     68 H30        -1.2931  -15.6337   -2.3653 H         1 <0>         0.0809
     69 H31         1.8832  -17.7292   -1.8506 H         1 <0>         0.1512
     70 H32         2.3915  -19.0983   -4.1228 H         1 <0>         0.1528
     71 H33         0.7274  -18.2110   -5.9421 H         1 <0>         0.2070
     72 H34        -2.4737   -9.5677    6.1075 H         1 <0>         0.2061
     73 H35        -0.7093  -12.7932    2.3412 H         1 <0>         0.4165
     74 H36        -1.4315  -13.3483    3.7529 H         1 <0>         0.4131
     75 H37        -2.6319   -2.4544    1.2472 H         1 <0>         0.4185
@<TRIPOS>BOND
     1    1    2 1
     2    1   39 1
     3    1   40 1
     4    1   41 1
     5    2    7 1
     6    2    3 1
     7    3    4 1
     8    3   42 1
     9    3   43 1
    10    4    5 1
    11    4   44 1
    12    4   45 1
    13    5    6 1
    14    5    8 1
    15    5   75 1
    16    6    7 1
    17    6   46 1
    18    6   47 1
    19    7   48 1
    20    7   49 1
    21    8   13 1
    22    8    9 1
    23    8   50 1
    24    9   10 1
    25    9   51 1
    26    9   52 1
    27   10   11 1
    28   10   53 1
    29   10   54 1
    30   11   12 1
    31   11   14 1
    32   11   55 1
    33   12   13 1
    34   12   56 1
    35   12   57 1
    36   13   58 1
    37   13   59 1
    38   14   18 1
    39   14   15 1
    40   15   37 ar
    41   15   16 ar
    42   16   17 1
    43   16   34 ar
    44   17   18 2
    45   17   19 1
    46   19   24 ar
    47   19   20 ar
    48   20   21 ar
    49   20   60 1
    50   21   22 ar
    51   21   61 1
    52   22   23 ar
    53   22   27 1
    54   23   24 ar
    55   23   25 1
    56   24   62 1
    57   25   26 1
    58   26   63 1
    59   26   64 1
    60   26   65 1
    61   27   28 1
    62   27   66 1
    63   28   29 1
    64   28   67 1
    65   28   68 1
    66   29   33 1
    67   29   30 2
    68   30   31 1
    69   30   69 1
    70   31   32 2
    71   31   70 1
    72   32   33 1
    73   32   71 1
    74   34   35 ar
    75   34   38 1
    76   35   36 ar
    77   36   37 ar
    78   36   72 1
    79   38   73 1
    80   38   74 1
@<TRIPOS>MOLECULE
CHEMBL568543
   62    66     0     0     0
SMALL
USER_CHARGES

@<TRIPOS>ATOM
      1 C1          0.5076   -1.2329    1.4170 C.3       1 <0>        -0.1650
      2 C2         -0.2168   -0.8434    0.1268 C.3       1 <0>         0.1509
      3 C3         -1.5835   -1.5296    0.0823 C.3       1 <0>         0.0202
      4 C4         -1.3917   -3.0476    0.0606 C.3       1 <0>         0.0241
      5 N1         -0.6309   -3.4253   -1.1388 N.3       1 <0>        -0.5314
      6 C5         -1.3271   -2.9890   -2.3574 C.3       1 <0>         0.0076
      7 C6         -1.5195   -1.4714   -2.3158 C.3       1 <0>        -0.0615
      8 N2         -2.3031   -1.1095   -1.1273 N.4       1 <0>        -0.3787
      9 C7         -2.5030    0.3455   -1.0973 C.3       1 <0>        -0.0508
     10 C8         -0.3765   -4.8718   -1.1671 C.3       1 <0>         0.0981
     11 C9          0.5294   -5.2000   -2.3259 C.ar      1 <0>        -0.1046
     12 C10        -0.0069   -5.4296   -3.5791 C.ar      1 <0>        -0.1174
     13 C11         0.8241   -5.7306   -4.6419 C.ar      1 <0>        -0.1192
     14 C12         2.1915   -5.8016   -4.4517 C.ar      1 <0>        -0.0957
     15 C13         2.7279   -5.5711   -3.1987 C.ar      1 <0>        -0.1103
     16 C14         1.8972   -5.2658   -2.1368 C.ar      1 <0>        -0.0888
     17 N3          0.5800   -1.2667   -1.0274 N.pl3     1 <0>        -0.6970
     18 C15         1.6430   -0.4911   -1.4563 C.ar      1 <0>         0.5777
     19 N4          2.0029    0.5643   -0.7406 N.ar      1 <0>        -0.5782
     20 C16         3.0152    1.3295   -1.1191 C.ar      1 <0>         0.2212
     21 C17         3.7020    1.0176   -2.2779 C.ar      1 <0>        -0.2936
     22 C18         3.2998   -0.0992   -3.0095 C.ar      1 <0>         0.4540
     23 N5          2.2788   -0.8255   -2.5689 N.ar      1 <0>        -0.5822
     24 N6          3.9626   -0.4509   -4.1837 N.pl3     1 <0>        -0.4427
     25 C19         5.1087    0.1107   -4.6657 C.2       1 <0>         0.2745
     26 N7          5.4490   -0.4597   -5.7837 N.2       1 <0>        -0.4635
     27 C20         4.5476   -1.4262   -6.0986 C.ar      1 <0>         0.0447
     28 C21         3.5845   -1.4391   -5.0756 C.ar      1 <0>         0.0564
     29 C22         2.5309   -2.3396   -5.1274 C.ar      1 <0>        -0.0868
     30 C23         2.4341   -3.2223   -6.1827 C.ar      1 <0>        -0.1005
     31 C24         3.3842   -3.2161   -7.1935 C.ar      1 <0>        -0.1201
     32 C25         4.4321   -2.3240   -7.1626 C.ar      1 <0>        -0.0606
     33 H1          1.5130   -0.8119    1.4104 H         1 <0>         0.0856
     34 H2         -0.0430   -0.8452    2.2741 H         1 <0>         0.0750
     35 H3          0.5690   -2.3190    1.4856 H         1 <0>         0.0676
     36 H4         -0.3519    0.2378    0.0982 H         1 <0>         0.1079
     37 H5         -2.1599   -1.2488    0.9639 H         1 <0>         0.1615
     38 H6         -0.8446   -3.3579    0.9509 H         1 <0>         0.1328
     39 H7         -2.3654   -3.5371    0.0427 H         1 <0>         0.0747
     40 H8         -0.7330   -3.2564   -3.2313 H         1 <0>         0.1335
     41 H9         -2.2998   -3.4774   -2.4152 H         1 <0>         0.0710
     42 H10        -0.5461   -0.9829   -2.2718 H         1 <0>         0.1767
     43 H11        -2.0484   -1.1475   -3.2122 H         1 <0>         0.1339
     44 H12        -1.5365    0.8463   -1.1543 H         1 <0>         0.1224
     45 H13        -3.1181    0.6453   -1.9458 H         1 <0>         0.1267
     46 H14        -3.0027    0.6246   -0.1697 H         1 <0>         0.1285
     47 H15         0.1010   -5.1751   -0.2354 H         1 <0>         0.0995
     48 H16        -1.3205   -5.4045   -1.2818 H         1 <0>         0.0642
     49 H17        -1.0752   -5.3742   -3.7277 H         1 <0>         0.1172
     50 H18         0.4050   -5.9107   -5.6209 H         1 <0>         0.1259
     51 H19         2.8406   -6.0375   -5.2820 H         1 <0>         0.1259
     52 H20         3.7961   -5.6268   -3.0500 H         1 <0>         0.1221
     53 H21         2.3166   -5.0821   -1.1586 H         1 <0>         0.1187
     54 H22         0.3624   -2.0904   -1.4911 H         1 <0>         0.4335
     55 H23         3.3009    2.1880   -0.5293 H         1 <0>         0.1822
     56 H24         4.5311    1.6255   -2.6090 H         1 <0>         0.1554
     57 H25         5.6535    0.9120   -4.1888 H         1 <0>         0.2240
     58 H26         1.7884   -2.3499   -4.3432 H         1 <0>         0.1310
     59 H27         1.6134   -3.9232   -6.2222 H         1 <0>         0.1304
     60 H28         3.2975   -3.9126   -8.0144 H         1 <0>         0.1343
     61 H29         5.1687   -2.3257   -7.9525 H         1 <0>         0.1358
     62 H30        -3.1997   -1.5711   -1.1624 H         1 <0>         0.4212
@<TRIPOS>BOND
     1    1    2 1
     2    1   33 1
     3    1   34 1
     4    1   35 1
     5    2    3 1
     6    2   17 1
     7    2   36 1
     8    3    8 1
     9    3    4 1
    10    3   37 1
    11    4    5 1
    12    4   38 1
    13    4   39 1
    14    5    6 1
    15    5   10 1
    16    6    7 1
    17    6   40 1
    18    6   41 1
    19    7    8 1
    20    7   42 1
    21    7   43 1
    22    8    9 1
    23    8   62 1
    24    9   44 1
    25    9   45 1
    26    9   46 1
    27   10   11 1
    28   10   47 1
    29   10   48 1
    30   11   16 ar
    31   11   12 ar
    32   12   13 ar
    33   12   49 1
    34   13   14 ar
    35   13   50 1
    36   14   15 ar
    37   14   51 1
    38   15   16 ar
    39   15   52 1
    40   16   53 1
    41   17   18 1
    42   17   54 1
    43   18   23 ar
    44   18   19 ar
    45   19   20 ar
    46   20   21 ar
    47   20   55 1
    48   21   22 ar
    49   21   56 1
    50   22   23 ar
    51   22   24 1
    52   24   28 1
    53   24   25 1
    54   25   26 2
    55   25   57 1
    56   26   27 1
    57   27   32 ar
    58   27   28 ar
    59   28   29 ar
    60   29   30 ar
    61   29   58 1
    62   30   31 ar
    63   30   59 1
    64   31   32 ar
    65   31   60 1
    66   32   61 1
@<TRIPOS>MOLECULE
CHEMBL568543__1
   62    66     0     0     0
SMALL
USER_CHARGES

@<TRIPOS>ATOM
      1 C1         -1.8904   -1.2852    0.1297 C.3       1 <0>        -0.1752
      2 C2         -0.6135   -0.4431    0.1634 C.3       1 <0>         0.1067
      3 C3          0.2804   -0.8248   -1.0182 C.3       1 <0>         0.0525
      4 C4          0.4870   -2.3410   -1.0333 C.3       1 <0>        -0.0082
      5 N1          1.1440   -2.7582    0.2124 N.4       1 <0>        -0.4005
      6 C5          2.4538   -2.1022    0.3206 C.3       1 <0>        -0.0177
      7 C6          2.2636   -0.5840    0.3469 C.3       1 <0>        -0.0411
      8 N2          1.5828   -0.1571   -0.8837 N.3       1 <0>        -0.5214
      9 C7          1.4320    1.3037   -0.9222 C.3       1 <0>         0.0177
     10 C8          1.3258   -4.2159    0.2053 C.3       1 <0>         0.0412
     11 C9          1.8762   -4.6599    1.5361 C.ar      1 <0>        -0.1656
     12 C10         3.2381   -4.8324    1.6980 C.ar      1 <0>        -0.0930
     13 C11         3.7430   -5.2397    2.9187 C.ar      1 <0>        -0.1115
     14 C12         2.8859   -5.4741    3.9776 C.ar      1 <0>        -0.0786
     15 C13         1.5240   -5.3007    3.8160 C.ar      1 <0>        -0.1086
     16 C14         1.0196   -4.8892    2.5965 C.ar      1 <0>        -0.0968
     17 N3          0.1023   -0.6913    1.4173 N.pl3     1 <0>        -0.7171
     18 C15        -0.2685   -0.0211    2.5701 C.ar      1 <0>         0.5802
     19 N4         -1.3348    0.7651    2.5457 N.ar      1 <0>        -0.5611
     20 C16        -1.7203    1.4219    3.6289 C.ar      1 <0>         0.2237
     21 C17        -0.9961    1.2812    4.7984 C.ar      1 <0>        -0.2826
     22 C18         0.1210    0.4468    4.7928 C.ar      1 <0>         0.4554
     23 N5          0.4480   -0.1859    3.6716 N.ar      1 <0>        -0.5894
     24 N6          0.8808    0.2754    5.9482 N.pl3     1 <0>        -0.4433
     25 C19         0.5880    0.7609    7.1891 C.2       1 <0>         0.2766
     26 N7          1.5127    0.4121    8.0342 N.2       1 <0>        -0.4608
     27 C20         2.4633   -0.3207    7.3976 C.ar      1 <0>         0.0468
     28 C21         2.0702   -0.4242    6.0526 C.ar      1 <0>         0.0547
     29 C22         2.8557   -1.1305    5.1538 C.ar      1 <0>        -0.0944
     30 C23         4.0195   -1.7319    5.5848 C.ar      1 <0>        -0.0995
     31 C24         4.4104   -1.6357    6.9124 C.ar      1 <0>        -0.1180
     32 C25         3.6473   -0.9321    7.8167 C.ar      1 <0>        -0.0576
     33 H1         -2.4150   -1.1123   -0.8099 H         1 <0>         0.0885
     34 H2         -1.6318   -2.3408    0.2126 H         1 <0>         0.0477
     35 H3         -2.5342   -1.0024    0.9626 H         1 <0>         0.0840
     36 H4         -0.8731    0.6134    0.0962 H         1 <0>         0.1235
     37 H5         -0.1939   -0.5127   -1.9487 H         1 <0>         0.1518
     38 H6         -0.4791   -2.8384   -1.1188 H         1 <0>         0.1427
     39 H7          1.1126   -2.6139   -1.8831 H         1 <0>         0.1482
     40 H8          2.9459   -2.4227    1.2389 H         1 <0>         0.1372
     41 H9          3.0694   -2.3764   -0.5362 H         1 <0>         0.1466
     42 H10         1.6594   -0.3082    1.2112 H         1 <0>         0.1175
     43 H11         3.2363   -0.0967    0.4122 H         1 <0>         0.1228
     44 H12         0.8828    1.6356   -0.0410 H         1 <0>         0.0400
     45 H13         2.4169    1.7704   -0.9336 H         1 <0>         0.0848
     46 H14         0.8843    1.5888   -1.8204 H         1 <0>         0.0864
     47 H15         0.3657   -4.7009    0.0290 H         1 <0>         0.1379
     48 H16         2.0228   -4.4912   -0.5863 H         1 <0>         0.1418
     49 H17         3.9078   -4.6493    0.8706 H         1 <0>         0.1330
     50 H18         4.8070   -5.3752    3.0449 H         1 <0>         0.1379
     51 H19         3.2802   -5.7930    4.9311 H         1 <0>         0.1364
     52 H20         0.8543   -5.4841    4.6432 H         1 <0>         0.1336
     53 H21        -0.0441   -4.7501    2.4713 H         1 <0>         0.1249
     54 H22         0.8360   -1.3253    1.4396 H         1 <0>         0.4010
     55 H23        -2.5906    2.0608    3.5992 H         1 <0>         0.1881
     56 H24        -1.2889    1.8060    5.6958 H         1 <0>         0.1606
     57 H25        -0.2841    1.3492    7.4337 H         1 <0>         0.2261
     58 H26         2.5565   -1.2096    4.1191 H         1 <0>         0.1272
     59 H27         4.6305   -2.2816    4.8842 H         1 <0>         0.1308
     60 H28         5.3238   -2.1114    7.2377 H         1 <0>         0.1367
     61 H29         3.9573   -0.8624    8.8489 H         1 <0>         0.1382
     62 H30         0.5702   -2.4950    0.9995 H         1 <0>         0.4109
@<TRIPOS>BOND
     1    1    2 1
     2    1   33 1
     3    1   34 1
     4    1   35 1
     5    2    3 1
     6    2   17 1
     7    2   36 1
     8    3    8 1
     9    3    4 1
    10    3   37 1
    11    4    5 1
    12    4   38 1
    13    4   39 1
    14    5    6 1
    15    5   10 1
    16    5   62 1
    17    6    7 1
    18    6   40 1
    19    6   41 1
    20    7    8 1
    21    7   42 1
    22    7   43 1
    23    8    9 1
    24    9   44 1
    25    9   45 1
    26    9   46 1
    27   10   11 1
    28   10   47 1
    29   10   48 1
    30   11   16 ar
    31   11   12 ar
    32   12   13 ar
    33   12   49 1
    34   13   14 ar
    35   13   50 1
    36   14   15 ar
    37   14   51 1
    38   15   16 ar
    39   15   52 1
    40   16   53 1
    41   17   18 1
    42   17   54 1
    43   18   23 ar
    44   18   19 ar
    45   19   20 ar
    46   20   21 ar
    47   20   55 1
    48   21   22 ar
    49   21   56 1
    50   22   23 ar
    51   22   24 1
    52   24   28 1
    53   24   25 1
    54   25   26 2
    55   25   57 1
    56   26   27 1
    57   27   32 ar
    58   27   28 ar
    59   28   29 ar
    60   29   30 ar
    61   29   58 1
    62   30   31 ar
    63   30   59 1
    64   31   32 ar
    65   31   60 1
    66   32   61 1
@<TRIPOS>MOLECULE
CHEMBL568543__2
   61    65     0     0     0
SMALL
USER_CHARGES

@<TRIPOS>ATOM
      1 C1          0.7445   -0.8687    1.1501 C.3       1 <0>        -0.1612
      2 C2          0.0236   -0.4955   -0.1468 C.3       1 <0>         0.1319
      3 C3         -1.3538   -1.1610   -0.1743 C.3       1 <0>         0.0747
      4 C4         -1.1869   -2.6819   -0.1358 C.3       1 <0>         0.0541
      5 N1         -0.4406   -3.1204   -1.3234 N.3       1 <0>        -0.5324
      6 C5         -1.1450   -2.7386   -2.5553 C.3       1 <0>         0.0397
      7 C6         -1.3119   -1.2177   -2.5938 C.3       1 <0>         0.0110
      8 N2         -2.0582   -0.7791   -1.4062 N.3       1 <0>        -0.5307
      9 C7         -2.3050    0.6685   -1.4444 C.3       1 <0>         0.0213
     10 C8         -0.1938   -4.5680   -1.2852 C.3       1 <0>         0.0936
     11 C9          0.6863   -4.9583   -2.4445 C.ar      1 <0>        -0.0876
     12 C10         0.1247   -5.2284   -3.6784 C.ar      1 <0>        -0.1126
     13 C11         0.9321   -5.5864   -4.7418 C.ar      1 <0>        -0.1222
     14 C12         2.3011   -5.6740   -4.5714 C.ar      1 <0>        -0.1063
     15 C13         2.8628   -5.4030   -3.3378 C.ar      1 <0>        -0.1146
     16 C14         2.0558   -5.0408   -2.2754 C.ar      1 <0>        -0.0940
     17 N3          0.8113   -0.9555   -1.2931 N.pl3     1 <0>        -0.6695
     18 C15         1.8775   -0.1996   -1.7482 C.ar      1 <0>         0.5870
     19 N4          2.2526    0.8687   -1.0598 N.ar      1 <0>        -0.5794
     20 C16         3.2684    1.6159   -1.4639 C.ar      1 <0>         0.2196
     21 C17         3.9428    1.2715   -2.6208 C.ar      1 <0>        -0.3158
     22 C18         3.5248    0.1419   -3.3234 C.ar      1 <0>         0.4471
     23 N5          2.5011   -0.5650   -2.8580 N.ar      1 <0>        -0.5875
     24 N6          4.1746   -0.2424   -4.4945 N.pl3     1 <0>        -0.4388
     25 C19         5.3067    0.3156   -5.0127 C.2       1 <0>         0.2736
     26 N7          5.6376   -0.2892   -6.1153 N.2       1 <0>        -0.4731
     27 C20         4.7437   -1.2766   -6.3832 C.ar      1 <0>         0.0419
     28 C21         3.7958   -1.2653   -5.3460 C.ar      1 <0>         0.0593
     29 C22         2.7528   -2.1795   -5.3510 C.ar      1 <0>        -0.0811
     30 C23         2.6515   -3.0993   -6.3736 C.ar      1 <0>        -0.1023
     31 C24         3.5866   -3.1170   -7.3982 C.ar      1 <0>        -0.1216
     32 C25         4.6238   -2.2120   -7.4137 C.ar      1 <0>        -0.0681
     33 H1          1.7571   -0.4657    1.1319 H         1 <0>         0.0650
     34 H2          0.2030   -0.4524    1.9996 H         1 <0>         0.0630
     35 H3          0.7870   -1.9539    1.2428 H         1 <0>         0.0585
     36 H4         -0.0947    0.5869   -0.1981 H         1 <0>         0.0859
     37 H5         -1.9319   -0.8362    0.6908 H         1 <0>         0.1078
     38 H6         -0.6391   -2.9650    0.7630 H         1 <0>         0.0909
     39 H7         -2.1687   -3.1554   -0.1280 H         1 <0>         0.0555
     40 H8         -0.5667   -3.0630   -3.4203 H         1 <0>         0.0916
     41 H9         -2.1263   -3.2127   -2.5749 H         1 <0>         0.0513
     42 H10        -0.3301   -0.7442   -2.6016 H         1 <0>         0.0869
     43 H11        -1.8597   -0.9346   -3.4926 H         1 <0>         0.0760
     44 H12        -1.3537    1.1979   -1.4974 H         1 <0>         0.0300
     45 H13        -2.9055    0.9117   -2.3209 H         1 <0>         0.0695
     46 H14        -2.8389    0.9700   -0.5432 H         1 <0>         0.0715
     47 H15         0.3014   -4.8277   -0.3495 H         1 <0>         0.0867
     48 H16        -1.1426   -5.1003   -1.3540 H         1 <0>         0.0533
     49 H17        -0.9448   -5.1600   -3.8115 H         1 <0>         0.1181
     50 H18         0.4933   -5.7981   -5.7057 H         1 <0>         0.1219
     51 H19         2.9318   -5.9544   -5.4021 H         1 <0>         0.1210
     52 H20         3.9324   -5.4717   -3.2046 H         1 <0>         0.1176
     53 H21         2.4950   -4.8255   -1.3125 H         1 <0>         0.1166
     54 H22         0.5855   -1.7900   -1.7332 H         1 <0>         0.4345
     55 H23         3.5665    2.4850   -0.8963 H         1 <0>         0.1742
     56 H24         4.7744    1.8641   -2.9724 H         1 <0>         0.1469
     57 H25         5.8484    1.1393   -4.5719 H         1 <0>         0.2211
     58 H26         2.0219   -2.1714   -4.5559 H         1 <0>         0.1361
     59 H27         1.8389   -3.8108   -6.3766 H         1 <0>         0.1302
     60 H28         3.4965   -3.8424   -8.1932 H         1 <0>         0.1308
     61 H29         5.3487   -2.2324   -8.2141 H         1 <0>         0.1314
@<TRIPOS>BOND
     1    1    2 1
     2    1   33 1
     3    1   34 1
     4    1   35 1
     5    2    3 1
     6    2   17 1
     7    2   36 1
     8    3    8 1
     9    3    4 1
    10    3   37 1
    11    4    5 1
    12    4   38 1
    13    4   39 1
    14    5    6 1
    15    5   10 1
    16    6    7 1
    17    6   40 1
    18    6   41 1
    19    7    8 1
    20    7   42 1
    21    7   43 1
    22    8    9 1
    23    9   44 1
    24    9   45 1
    25    9   46 1
    26   10   11 1
    27   10   47 1
    28   10   48 1
    29   11   16 ar
    30   11   12 ar
    31   12   13 ar
    32   12   49 1
    33   13   14 ar
    34   13   50 1
    35   14   15 ar
    36   14   51 1
    37   15   16 ar
    38   15   52 1
    39   16   53 1
    40   17   18 1
    41   17   54 1
    42   18   23 ar
    43   18   19 ar
    44   19   20 ar
    45   20   21 ar
    46   20   55 1
    47   21   22 ar
    48   21   56 1
    49   22   23 ar
    50   22   24 1
    51   24   28 1
    52   24   25 1
    53   25   26 2
    54   25   57 1
    55   26   27 1
    56   27   32 ar
    57   27   28 ar
    58   28   29 ar
    59   29   30 ar
    60   29   58 1
    61   30   31 ar
    62   30   59 1
    63   31   32 ar
    64   31   60 1
    65   32   61 1
@<TRIPOS>MOLECULE
CHEMBL568543__3
   62    66     0     0     0
SMALL
USER_CHARGES

@<TRIPOS>ATOM
      1 C1         -0.0187    1.5258    0.0104 C.3       1 <0>        -0.1921
      2 C2          0.0021   -0.0041    0.0020 C.3       1 <0>         0.1514
      3 C3         -1.4333   -0.5336    0.0129 C.3       1 <0>         0.0221
      4 C4         -2.1103   -0.1453    1.3292 C.3       1 <0>         0.0273
      5 N1         -3.4948   -0.6387    1.3289 N.3       1 <0>        -0.5303
      6 C5         -4.2463   -0.0839    0.1941 C.3       1 <0>         0.0183
      7 C6         -3.5517   -0.4727   -1.1128 C.3       1 <0>        -0.0014
      8 N2         -2.1783    0.0482   -1.1114 N.4       1 <0>        -0.3821
      9 C7         -1.5178   -0.3098   -2.3737 C.3       1 <0>        -0.0564
     10 C8         -4.1623   -0.3344    2.6016 C.3       1 <0>         0.0979
     11 C9         -5.4815   -1.0604    2.6630 C.ar      1 <0>        -0.0972
     12 C10        -6.6262   -0.4561    2.1778 C.ar      1 <0>        -0.1188
     13 C11        -7.8363   -1.1220    2.2342 C.ar      1 <0>        -0.1175
     14 C12        -7.9016   -2.3924    2.7752 C.ar      1 <0>        -0.1084
     15 C13        -6.7567   -2.9971    3.2596 C.ar      1 <0>        -0.1160
     16 C14        -5.5459   -2.3328    3.1993 C.ar      1 <0>        -0.0944
     17 N3          0.7106   -0.4894    1.1889 N.pl3     1 <0>        -0.6938
     18 C15         2.0899   -0.6028    1.1733 C.ar      1 <0>         0.5966
     19 N4          2.7537   -0.2628    0.0781 N.ar      1 <0>        -0.5812
     20 C16         4.0735   -0.3573    0.0259 C.ar      1 <0>         0.2235
     21 C17         4.7625   -0.8178    1.1328 C.ar      1 <0>        -0.2918
     22 C18         4.0362   -1.1679    2.2704 C.ar      1 <0>         0.4587
     23 N5          2.7139   -1.0433    2.2552 N.ar      1 <0>        -0.5851
     24 N6          4.6887   -1.6371    3.4087 N.pl3     1 <0>        -0.4438
     25 C19         6.0345   -1.8020    3.5603 C.2       1 <0>         0.2744
     26 N7          6.2968   -2.2577    4.7497 N.2       1 <0>        -0.4622
     27 C20         5.1407   -2.4177    5.4450 C.ar      1 <0>         0.0444
     28 C21         4.0931   -2.0174    4.5985 C.ar      1 <0>         0.0541
     29 C22         2.7819   -2.0676    5.0477 C.ar      1 <0>        -0.0934
     30 C23         2.5111   -2.5080    6.3263 C.ar      1 <0>        -0.0998
     31 C24         3.5418   -2.9011    7.1674 C.ar      1 <0>        -0.1177
     32 C25         4.8486   -2.8654    6.7357 C.ar      1 <0>        -0.0606
     33 H1          1.0039    1.9031    0.0027 H         1 <0>         0.0947
     34 H2         -0.5459    1.8868   -0.8726 H         1 <0>         0.0629
     35 H3         -0.5289    1.8773    0.9072 H         1 <0>         0.0746
     36 H4          0.5123   -0.3556   -0.8948 H         1 <0>         0.1207
     37 H5         -1.4207   -1.6194   -0.0827 H         1 <0>         0.1535
     38 H6         -1.5662   -0.5893    2.1628 H         1 <0>         0.1195
     39 H7         -2.1109    0.9398    1.4315 H         1 <0>         0.0694
     40 H8         -5.2606   -0.4831    0.1997 H         1 <0>         0.1299
     41 H9         -4.2821    1.0023    0.2778 H         1 <0>         0.0623
     42 H10        -3.5282   -1.5588   -1.2026 H         1 <0>         0.1397
     43 H11        -4.0996   -0.0503   -1.9551 H         1 <0>         0.1407
     44 H12        -1.4938   -1.3947   -2.4763 H         1 <0>         0.1270
     45 H13        -2.0706    0.1219   -3.2081 H         1 <0>         0.1302
     46 H14        -0.4991    0.0778   -2.3734 H         1 <0>         0.1281
     47 H15        -3.5310   -0.6575    3.4293 H         1 <0>         0.0968
     48 H16        -4.3348    0.7394    2.6738 H         1 <0>         0.0569
     49 H17        -6.5752    0.5364    1.7551 H         1 <0>         0.1176
     50 H18        -8.7307   -0.6496    1.8558 H         1 <0>         0.1257
     51 H19        -8.8471   -2.9124    2.8199 H         1 <0>         0.1267
     52 H20        -6.8077   -3.9895    3.6826 H         1 <0>         0.1269
     53 H21        -4.6507   -2.8067    3.5743 H         1 <0>         0.1236
     54 H22         0.2131   -0.7312    1.9857 H         1 <0>         0.4175
     55 H23         4.6058   -0.0781   -0.8713 H         1 <0>         0.1844
     56 H24         5.8389   -0.9048    1.1164 H         1 <0>         0.1578
     57 H25         6.7738   -1.5859    2.8033 H         1 <0>         0.2253
     58 H26         1.9750   -1.7623    4.3980 H         1 <0>         0.1347
     59 H27         1.4897   -2.5467    6.6752 H         1 <0>         0.1337
     60 H28         3.3169   -3.2437    8.1666 H         1 <0>         0.1366
     61 H29         5.6460   -3.1719    7.3963 H         1 <0>         0.1373
     62 H30        -2.1999    1.0525   -1.0165 H         1 <0>         0.4208
@<TRIPOS>BOND
     1    1    2 1
     2    1   33 1
     3    1   34 1
     4    1   35 1
     5    2    3 1
     6    2   17 1
     7    2   36 1
     8    3    8 1
     9    3    4 1
    10    3   37 1
    11    4    5 1
    12    4   38 1
    13    4   39 1
    14    5    6 1
    15    5   10 1
    16    6    7 1
    17    6   40 1
    18    6   41 1
    19    7    8 1
    20    7   42 1
    21    7   43 1
    22    8    9 1
    23    8   62 1
    24    9   44 1
    25    9   45 1
    26    9   46 1
    27   10   11 1
    28   10   47 1
    29   10   48 1
    30   11   16 ar
    31   11   12 ar
    32   12   13 ar
    33   12   49 1
    34   13   14 ar
    35   13   50 1
    36   14   15 ar
    37   14   51 1
    38   15   16 ar
    39   15   52 1
    40   16   53 1
    41   17   18 1
    42   17   54 1
    43   18   23 ar
    44   18   19 ar
    45   19   20 ar
    46   20   21 ar
    47   20   55 1
    48   21   22 ar
    49   21   56 1
    50   22   23 ar
    51   22   24 1
    52   24   28 1
    53   24   25 1
    54   25   26 2
    55   25   57 1
    56   26   27 1
    57   27   32 ar
    58   27   28 ar
    59   28   29 ar
    60   29   30 ar
    61   29   58 1
    62   30   31 ar
    63   30   59 1
    64   31   32 ar
    65   31   60 1
    66   32   61 1
@<TRIPOS>MOLECULE
CHEMBL568543__4
   62    66     0     0     0
SMALL
USER_CHARGES

@<TRIPOS>ATOM
      1 C1          0.5666   -0.1009    0.8996 C.3       1 <0>        -0.1624
      2 C2         -0.2434    0.1969   -0.3637 C.3       1 <0>         0.1708
      3 C3          0.4356   -0.4544   -1.5702 C.3       1 <0>         0.0539
      4 C4          1.8251    0.1563   -1.7654 C.3       1 <0>        -0.0087
      5 N1          2.4846   -0.4833   -2.9115 N.4       1 <0>        -0.3832
      6 C5          2.6308   -1.9220   -2.6542 C.3       1 <0>        -0.0084
      7 C6          1.2480   -2.5500   -2.4665 C.3       1 <0>         0.0285
      8 N2          0.5670   -1.8997   -1.3379 N.3       1 <0>        -0.5282
      9 C7         -0.7439   -2.5143   -1.0893 C.3       1 <0>         0.0129
     10 C8          3.8112    0.1157   -3.1096 C.3       1 <0>         0.0447
     11 C9          4.4377   -0.4524   -4.3569 C.ar      1 <0>        -0.1625
     12 C10         5.2135   -1.5940   -4.2823 C.ar      1 <0>        -0.0968
     13 C11         5.7882   -2.1152   -5.4264 C.ar      1 <0>        -0.1130
     14 C12         5.5867   -1.4949   -6.6453 C.ar      1 <0>        -0.0830
     15 C13         4.8101   -0.3537   -6.7200 C.ar      1 <0>        -0.1126
     16 C14         4.2319    0.1649   -5.5766 C.ar      1 <0>        -0.0937
     17 N3         -0.3155    1.6459   -0.5673 N.pl3     1 <0>        -0.7022
     18 C15        -1.3184    2.3810    0.0405 C.ar      1 <0>         0.5973
     19 N4         -2.2016    1.7584    0.8074 N.ar      1 <0>        -0.5746
     20 C16        -3.1747    2.4283    1.4055 C.ar      1 <0>         0.2244
     21 C17        -3.2651    3.7960    1.2233 C.ar      1 <0>        -0.2950
     22 C18        -2.3211    4.4227    0.4106 C.ar      1 <0>         0.4546
     23 N5         -1.3684    3.6899   -0.1546 N.ar      1 <0>        -0.5907
     24 N6         -2.3738    5.7989    0.1984 N.pl3     1 <0>        -0.4430
     25 C19        -3.2878    6.6647    0.7240 C.2       1 <0>         0.2765
     26 N7         -3.0404    7.8751    0.3181 N.2       1 <0>        -0.4646
     27 C20        -1.9522    7.8728   -0.4953 C.ar      1 <0>         0.0451
     28 C21        -1.5052    6.5435   -0.5801 C.ar      1 <0>         0.0548
     29 C22        -0.3920    6.2346   -1.3477 C.ar      1 <0>        -0.0936
     30 C23         0.2745    7.2353   -2.0233 C.ar      1 <0>        -0.1025
     31 C24        -0.1605    8.5499   -1.9403 C.ar      1 <0>        -0.1191
     32 C25        -1.2682    8.8736   -1.1896 C.ar      1 <0>        -0.0606
     33 H1          0.6203   -1.1790    1.0511 H         1 <0>         0.0856
     34 H2          1.5737    0.3010    0.7887 H         1 <0>         0.0528
     35 H3          0.0829    0.3631    1.7592 H         1 <0>         0.0694
     36 H4         -1.2505   -0.2050   -0.2528 H         1 <0>         0.1153
     37 H5         -0.1661   -0.2827   -2.4627 H         1 <0>         0.0736
     38 H6          1.7289    1.2259   -1.9520 H         1 <0>         0.1301
     39 H7          2.4216   -0.0037   -0.8673 H         1 <0>         0.1472
     40 H8          3.1320   -2.3932   -3.4998 H         1 <0>         0.1377
     41 H9          3.2233   -2.0713   -1.7516 H         1 <0>         0.1392
     42 H10         0.6600   -2.4128   -3.3740 H         1 <0>         0.0613
     43 H11         1.3570   -3.6148   -2.2608 H         1 <0>         0.1282
     44 H12        -1.4233   -2.2630   -1.9037 H         1 <0>         0.0415
     45 H13        -0.6322   -3.5969   -1.0302 H         1 <0>         0.0868
     46 H14        -1.1487   -2.1389   -0.1494 H         1 <0>         0.0898
     47 H15         3.7102    1.1961   -3.2135 H         1 <0>         0.1372
     48 H16         4.4434   -0.1092   -2.2507 H         1 <0>         0.1378
     49 H17         5.3710   -2.0786   -3.3301 H         1 <0>         0.1318
     50 H18         6.3950   -3.0067   -5.3680 H         1 <0>         0.1369
     51 H19         6.0363   -1.9016   -7.5390 H         1 <0>         0.1364
     52 H20         4.6530    0.1310   -7.6722 H         1 <0>         0.1363
     53 H21         3.6221    1.0544   -5.6355 H         1 <0>         0.1306
     54 H22         0.3396    2.0901   -1.1280 H         1 <0>         0.4057
     55 H23        -3.8901    1.9120    2.0285 H         1 <0>         0.1838
     56 H24        -4.0493    4.3658    1.6994 H         1 <0>         0.1564
     57 H25        -4.0985    6.3856    1.3808 H         1 <0>         0.2254
     58 H26        -0.0479    5.2132   -1.4159 H         1 <0>         0.1337
     59 H27         1.1412    6.9938   -2.6208 H         1 <0>         0.1316
     60 H28         0.3702    9.3246   -2.4737 H         1 <0>         0.1357
     61 H29        -1.6005    9.8994   -1.1286 H         1 <0>         0.1370
     62 H30         1.9264   -0.3451   -3.7406 H         1 <0>         0.4199
@<TRIPOS>BOND
     1    1    2 1
     2    1   33 1
     3    1   34 1
     4    1   35 1
     5    2    3 1
     6    2   17 1
     7    2   36 1
     8    3    8 1
     9    3    4 1
    10    3   37 1
    11    4    5 1
    12    4   38 1
    13    4   39 1
    14    5    6 1
    15    5   10 1
    16    5   62 1
    17    6    7 1
    18    6   40 1
    19    6   41 1
    20    7    8 1
    21    7   42 1
    22    7   43 1
    23    8    9 1
    24    9   44 1
    25    9   45 1
    26    9   46 1
    27   10   11 1
    28   10   47 1
    29   10   48 1
    30   11   16 ar
    31   11   12 ar
    32   12   13 ar
    33   12   49 1
    34   13   14 ar
    35   13   50 1
    36   14   15 ar
    37   14   51 1
    38   15   16 ar
    39   15   52 1
    40   16   53 1
    41   17   18 1
    42   17   54 1
    43   18   23 ar
    44   18   19 ar
    45   19   20 ar
    46   20   21 ar
    47   20   55 1
    48   21   22 ar
    49   21   56 1
    50   22   23 ar
    51   22   24 1
    52   24   28 1
    53   24   25 1
    54   25   26 2
    55   25   57 1
    56   26   27 1
    57   27   32 ar
    58   27   28 ar
    59   28   29 ar
    60   29   30 ar
    61   29   58 1
    62   30   31 ar
    63   30   59 1
    64   31   32 ar
    65   31   60 1
    66   32   61 1
@<TRIPOS>MOLECULE
CHEMBL568543__5
   61    65     0     0     0
SMALL
USER_CHARGES

@<TRIPOS>ATOM
      1 C1          0.4892   -0.0989   -0.9373 C.3       1 <0>        -0.1547
      2 C2         -0.2094    0.1905    0.3928 C.3       1 <0>         0.1646
      3 C3         -1.5741   -0.5008    0.4131 C.3       1 <0>         0.0812
      4 C4         -2.4560    0.0773   -0.6961 C.3       1 <0>         0.0587
      5 N1         -3.7519   -0.6156   -0.6993 N.3       1 <0>        -0.5328
      6 C5         -3.5744   -2.0576   -0.9198 C.3       1 <0>         0.0527
      7 C6         -2.6925   -2.6358    0.1895 C.3       1 <0>         0.0583
      8 N2         -1.3965   -1.9429    0.1927 N.3       1 <0>        -0.5311
      9 C7         -0.4927   -2.5215    1.1958 C.3       1 <0>         0.0171
     10 C8         -4.6558   -0.0370   -1.7024 C.3       1 <0>         0.0942
     11 C9         -6.0414   -0.5985   -1.5134 C.ar      1 <0>        -0.0796
     12 C10        -6.4147   -1.7545   -2.1733 C.ar      1 <0>        -0.1147
     13 C11        -7.6857   -2.2696   -2.0000 C.ar      1 <0>        -0.1205
     14 C12        -8.5833   -1.6290   -1.1664 C.ar      1 <0>        -0.1189
     15 C13        -8.2098   -0.4736   -0.5058 C.ar      1 <0>        -0.1205
     16 C14        -6.9373    0.0392   -0.6758 C.ar      1 <0>        -0.0982
     17 N3         -0.3920    1.6362    0.5441 N.pl3     1 <0>        -0.6882
     18 C15         0.6124    2.4056    1.1051 C.ar      1 <0>         0.6028
     19 N4          1.7346    1.8187    1.4948 N.ar      1 <0>        -0.5740
     20 C16         2.7177    2.5221    2.0353 C.ar      1 <0>         0.2233
     21 C17         2.5651    3.8873    2.1925 C.ar      1 <0>        -0.3081
     22 C18         1.3728    4.4761    1.7728 C.ar      1 <0>         0.4501
     23 N5          0.4301    3.7110    1.2341 N.ar      1 <0>        -0.5925
     24 N6          1.1750    5.8484    1.9122 N.pl3     1 <0>        -0.4404
     25 C19         2.0602    6.7448    2.4359 C.2       1 <0>         0.2753
     26 N7          1.5500    7.9408    2.4128 N.2       1 <0>        -0.4712
     27 C20         0.3037    7.8977    1.8738 C.ar      1 <0>         0.0429
     28 C21         0.0464    6.5573    1.5398 C.ar      1 <0>         0.0570
     29 C22        -1.1637    6.2082    0.9590 C.ar      1 <0>        -0.0896
     30 C23        -2.1101    7.1797    0.7085 C.ar      1 <0>        -0.1033
     31 C24        -1.8598    8.5050    1.0331 C.ar      1 <0>        -0.1199
     32 C25        -0.6675    8.8685    1.6173 C.ar      1 <0>        -0.0662
     33 H1          1.4614    0.3937   -0.9518 H         1 <0>         0.0556
     34 H2          0.6250   -1.1745   -1.0499 H         1 <0>         0.0799
     35 H3         -0.1213    0.2781   -1.7579 H         1 <0>         0.0544
     36 H4          0.4012   -0.1864    1.2133 H         1 <0>         0.0998
     37 H5         -2.0505   -0.3367    1.3797 H         1 <0>         0.0572
     38 H6         -2.6129    1.1413   -0.5186 H         1 <0>         0.0750
     39 H7         -1.9665   -0.0626   -1.6599 H         1 <0>         0.0531
     40 H8         -4.5466   -2.5501   -0.9053 H         1 <0>         0.0862
     41 H9         -3.0976   -2.2217   -1.8861 H         1 <0>         0.0443
     42 H10        -3.1820   -2.4959    1.1533 H         1 <0>         0.0441
     43 H11        -2.5356   -3.6997    0.0120 H         1 <0>         0.0842
     44 H12        -0.8515   -2.2728    2.1946 H         1 <0>         0.0289
     45 H13        -0.4656   -3.6048    1.0787 H         1 <0>         0.0718
     46 H14         0.5097   -2.1160    1.0585 H         1 <0>         0.0754
     47 H15        -4.6836    1.0463   -1.5847 H         1 <0>         0.0838
     48 H16        -4.2964   -0.2848   -2.7012 H         1 <0>         0.0458
     49 H17        -5.7134   -2.2549   -2.8246 H         1 <0>         0.1183
     50 H18        -7.9775   -3.1723   -2.5161 H         1 <0>         0.1216
     51 H19        -9.5766   -2.0310   -1.0315 H         1 <0>         0.1211
     52 H20        -8.9112    0.0271    0.1452 H         1 <0>         0.1218
     53 H21        -6.6442    0.9398   -0.1568 H         1 <0>         0.1213
     54 H22        -1.2168    2.0541    0.2511 H         1 <0>         0.4118
     55 H23         3.6286    2.0347    2.3502 H         1 <0>         0.1792
     56 H24         3.3513    4.4841    2.6308 H         1 <0>         0.1510
     57 H25         3.0409    6.4974    2.8145 H         1 <0>         0.2232
     58 H26        -1.3644    5.1783    0.7033 H         1 <0>         0.1379
     59 H27        -3.0521    6.9069    0.2563 H         1 <0>         0.1328
     60 H28        -2.6087    9.2566    0.8316 H         1 <0>         0.1334
     61 H29        -0.4791    9.9024    1.8664 H         1 <0>         0.1337
@<TRIPOS>BOND
     1    1    2 1
     2    1   33 1
     3    1   34 1
     4    1   35 1
     5    2    3 1
     6    2   17 1
     7    2   36 1
     8    3    8 1
     9    3    4 1
    10    3   37 1
    11    4    5 1
    12    4   38 1
    13    4   39 1
    14    5    6 1
    15    5   10 1
    16    6    7 1
    17    6   40 1
    18    6   41 1
    19    7    8 1
    20    7   42 1
    21    7   43 1
    22    8    9 1
    23    9   44 1
    24    9   45 1
    25    9   46 1
    26   10   11 1
    27   10   47 1
    28   10   48 1
    29   11   16 ar
    30   11   12 ar
    31   12   13 ar
    32   12   49 1
    33   13   14 ar
    34   13   50 1
    35   14   15 ar
    36   14   51 1
    37   15   16 ar
    38   15   52 1
    39   16   53 1
    40   17   18 1
    41   17   54 1
    42   18   23 ar
    43   18   19 ar
    44   19   20 ar
    45   20   21 ar
    46   20   55 1
    47   21   22 ar
    48   21   56 1
    49   22   23 ar
    50   22   24 1
    51   24   28 1
    52   24   25 1
    53   25   26 2
    54   25   57 1
    55   26   27 1
    56   27   32 ar
    57   27   28 ar
    58   28   29 ar
    59   29   30 ar
    60   29   58 1
    61   30   31 ar
    62   30   59 1
    63   31   32 ar
    64   31   60 1
    65   32   61 1
@<TRIPOS>MOLECULE
CHEMBL568543__6
   62    66     0     0     0
SMALL
USER_CHARGES

@<TRIPOS>ATOM
      1 C1         -1.2324   -1.5599    0.3697 C.3       1 <0>        -0.1616
      2 C2          0.0138   -0.6825    0.2358 C.3       1 <0>         0.1509
      3 C3          0.8351   -0.7631    1.5242 C.3       1 <0>         0.0222
      4 C4         -0.0472   -0.3849    2.7160 C.3       1 <0>         0.0320
      5 N1         -0.5310    0.9925    2.5460 N.3       1 <0>        -0.5300
      6 C5          0.5944    1.9313    2.4357 C.3       1 <0>         0.0223
      7 C6          1.4714    1.5340    1.2462 C.3       1 <0>        -0.0097
      8 N2          1.9697    0.1660    1.4404 N.4       1 <0>        -0.3808
      9 C7          2.8261   -0.2084    0.3071 C.3       1 <0>        -0.0630
     10 C8         -1.4292    1.3742    3.6440 C.3       1 <0>         0.0990
     11 C9         -2.0944    2.6860    3.3159 C.ar      1 <0>        -0.0962
     12 C10        -1.4987    3.8758    3.6906 C.ar      1 <0>        -0.1188
     13 C11        -2.1089    5.0791    3.3897 C.ar      1 <0>        -0.1180
     14 C12        -3.3146    5.0926    2.7136 C.ar      1 <0>        -0.1089
     15 C13        -3.9098    3.9029    2.3381 C.ar      1 <0>        -0.1161
     16 C14        -3.2975    2.6997    2.6353 C.ar      1 <0>        -0.0930
     17 N3          0.8241   -1.1536   -0.8901 N.pl3     1 <0>        -0.7154
     18 C15         0.5800   -0.6760   -2.1660 C.ar      1 <0>         0.5856
     19 N4         -0.3870    0.2110   -2.3498 N.ar      1 <0>        -0.5727
     20 C16        -0.6494    0.6908   -3.5558 C.ar      1 <0>         0.2241
     21 C17         0.0994    0.2563   -4.6339 C.ar      1 <0>        -0.2892
     22 C18         1.1101   -0.6776   -4.4088 C.ar      1 <0>         0.4575
     23 N5          1.3224   -1.1129   -3.1719 N.ar      1 <0>        -0.5873
     24 N6          1.8895   -1.1439   -5.4655 N.pl3     1 <0>        -0.4439
     25 C19         1.7840   -0.7733   -6.7743 C.2       1 <0>         0.2746
     26 N7          2.6683   -1.4043   -7.4892 N.2       1 <0>        -0.4613
     27 C20         3.4029   -2.2233   -6.6922 C.ar      1 <0>         0.0446
     28 C21         2.9189   -2.0650   -5.3826 C.ar      1 <0>         0.0538
     29 C22         3.4901   -2.7818   -4.3416 C.ar      1 <0>        -0.0948
     30 C23         4.5343   -3.6461   -4.5956 C.ar      1 <0>        -0.0997
     31 C24         5.0183   -3.8036   -5.8861 C.ar      1 <0>        -0.1177
     32 C25         4.4584   -3.1063   -6.9327 C.ar      1 <0>        -0.0594
     33 H1         -1.8907   -1.1423    1.1314 H         1 <0>         0.0842
     34 H2         -1.7571   -1.5939   -0.5851 H         1 <0>         0.0788
     35 H3         -0.9372   -2.5688    0.6581 H         1 <0>         0.0634
     36 H4         -0.2864    0.3506    0.0603 H         1 <0>         0.1331
     37 H5          1.2066   -1.7794    1.6553 H         1 <0>         0.1462
     38 H6         -0.8973   -1.0650    2.7695 H         1 <0>         0.1304
     39 H7          0.5339   -0.4554    3.6355 H         1 <0>         0.0688
     40 H8          0.2124    2.9409    2.2847 H         1 <0>         0.1286
     41 H9          1.1861    1.8989    3.3505 H         1 <0>         0.0626
     42 H10         0.8830    1.5796    0.3298 H         1 <0>         0.1393
     43 H11         2.3146    2.2206    1.1711 H         1 <0>         0.1364
     44 H12         2.3193    0.0341   -0.6269 H         1 <0>         0.1364
     45 H13         3.7654    0.3416    0.3643 H         1 <0>         0.1230
     46 H14         3.0290   -1.2788    0.3431 H         1 <0>         0.1212
     47 H15        -2.1894    0.6043    3.7759 H         1 <0>         0.0974
     48 H16        -0.8543    1.4785    4.5642 H         1 <0>         0.0565
     49 H17        -0.5568    3.8652    4.2188 H         1 <0>         0.1170
     50 H18        -1.6439    6.0087    3.6831 H         1 <0>         0.1247
     51 H19        -3.7917    6.0327    2.4791 H         1 <0>         0.1258
     52 H20        -4.8520    3.9134    1.8102 H         1 <0>         0.1263
     53 H21        -3.7607    1.7703    2.3386 H         1 <0>         0.1238
     54 H22         1.5317   -1.8002   -0.7414 H         1 <0>         0.4136
     55 H23        -1.4399    1.4133   -3.6958 H         1 <0>         0.1850
     56 H24        -0.0944    0.6315   -5.6279 H         1 <0>         0.1580
     57 H25         1.0704   -0.0605   -7.1603 H         1 <0>         0.2254
     58 H26         3.1183   -2.6631   -3.3346 H         1 <0>         0.1337
     59 H27         4.9784   -4.2039   -3.7844 H         1 <0>         0.1336
     60 H28         5.8367   -4.4833   -6.0722 H         1 <0>         0.1369
     61 H29         4.8410   -3.2331   -7.9347 H         1 <0>         0.1377
     62 H30         2.5046    0.1212    2.2948 H         1 <0>         0.4230
@<TRIPOS>BOND
     1    1    2 1
     2    1   33 1
     3    1   34 1
     4    1   35 1
     5    2    3 1
     6    2   17 1
     7    2   36 1
     8    3    8 1
     9    3    4 1
    10    3   37 1
    11    4    5 1
    12    4   38 1
    13    4   39 1
    14    5    6 1
    15    5   10 1
    16    6    7 1
    17    6   40 1
    18    6   41 1
    19    7    8 1
    20    7   42 1
    21    7   43 1
    22    8    9 1
    23    8   62 1
    24    9   44 1
    25    9   45 1
    26    9   46 1
    27   10   11 1
    28   10   47 1
    29   10   48 1
    30   11   16 ar
    31   11   12 ar
    32   12   13 ar
    33   12   49 1
    34   13   14 ar
    35   13   50 1
    36   14   15 ar
    37   14   51 1
    38   15   16 ar
    39   15   52 1
    40   16   53 1
    41   17   18 1
    42   17   54 1
    43   18   23 ar
    44   18   19 ar
    45   19   20 ar
    46   20   21 ar
    47   20   55 1
    48   21   22 ar
    49   21   56 1
    50   22   23 ar
    51   22   24 1
    52   24   28 1
    53   24   25 1
    54   25   26 2
    55   25   57 1
    56   26   27 1
    57   27   32 ar
    58   27   28 ar
    59   28   29 ar
    60   29   30 ar
    61   29   58 1
    62   30   31 ar
    63   30   59 1
    64   31   32 ar
    65   31   60 1
    66   32   61 1
@<TRIPOS>MOLECULE
CHEMBL568543__7
   62    66     0     0     0
SMALL
USER_CHARGES

@<TRIPOS>ATOM
      1 C1         -0.3082    1.4280    0.1924 C.3       1 <0>        -0.1775
      2 C2         -0.2510   -0.0737   -0.0949 C.3       1 <0>         0.1163
      3 C3         -1.6515   -0.6735    0.0456 C.3       1 <0>         0.0465
      4 C4         -2.2112   -0.3445    1.4313 C.3       1 <0>         0.0032
      5 N1         -1.3409   -0.9260    2.4618 N.4       1 <0>        -0.3878
      6 C5         -1.2977   -2.3855    2.3021 C.3       1 <0>        -0.0062
      7 C6         -0.7303   -2.7314    0.9236 C.3       1 <0>         0.0206
      8 N2         -1.5786   -2.1325   -0.1165 N.3       1 <0>        -0.5242
      9 C7         -1.0982   -2.4898   -1.4579 C.3       1 <0>         0.0070
     10 C8         -1.8687   -0.5947    3.7920 C.3       1 <0>         0.0443
     11 C9         -0.9122   -1.0849    4.8484 C.ar      1 <0>        -0.1627
     12 C10        -1.0448   -2.3613    5.3622 C.ar      1 <0>        -0.0969
     13 C11        -0.1674   -2.8110    6.3311 C.ar      1 <0>        -0.1134
     14 C12         0.8429   -1.9843    6.7859 C.ar      1 <0>        -0.0834
     15 C13         0.9761   -0.7082    6.2715 C.ar      1 <0>        -0.1124
     16 C14         0.1013   -0.2601    5.2994 C.ar      1 <0>        -0.0931
     17 N3          0.2392   -0.2917   -1.4581 N.pl3     1 <0>        -0.6914
     18 C15         1.5972   -0.4184   -1.6932 C.ar      1 <0>         0.5936
     19 N4          2.4392   -0.3452   -0.6726 N.ar      1 <0>        -0.5855
     20 C16         3.7450   -0.4622   -0.8585 C.ar      1 <0>         0.2216
     21 C17         4.2304   -0.6634   -2.1375 C.ar      1 <0>        -0.2958
     22 C18         3.3197   -0.7359   -3.1910 C.ar      1 <0>         0.4598
     23 N5          2.0226   -0.6151   -2.9318 N.ar      1 <0>        -0.5859
     24 N6          3.7637   -0.9371   -4.4963 N.pl3     1 <0>        -0.4437
     25 C19         5.0594   -1.0869   -4.8967 C.2       1 <0>         0.2733
     26 N7          5.1113   -1.2565   -6.1849 N.2       1 <0>        -0.4620
     27 C20         3.8556   -1.2279   -6.7025 C.ar      1 <0>         0.0438
     28 C21         2.9725   -1.0283   -5.6280 C.ar      1 <0>         0.0543
     29 C22         1.6063   -0.9610   -5.8574 C.ar      1 <0>        -0.0932
     30 C23         1.1189   -1.0935   -7.1407 C.ar      1 <0>        -0.0991
     31 C24         1.9860   -1.2942   -8.2048 C.ar      1 <0>        -0.1174
     32 C25         3.3455   -1.3556   -7.9967 C.ar      1 <0>        -0.0609
     33 H1          0.6896    1.8554    0.0924 H         1 <0>         0.0777
     34 H2         -0.9819    1.9083   -0.5171 H         1 <0>         0.0748
     35 H3         -0.6729    1.5903    1.2067 H         1 <0>         0.0622
     36 H4          0.4228   -0.5539    0.6147 H         1 <0>         0.0936
     37 H5         -2.3049   -0.2547   -0.7198 H         1 <0>         0.1363
     38 H6         -2.2528    0.7372    1.5589 H         1 <0>         0.1421
     39 H7         -3.2143   -0.7603    1.5260 H         1 <0>         0.1468
     40 H8         -0.6620   -2.8169    3.0753 H         1 <0>         0.1365
     41 H9         -2.3055   -2.7909    2.3923 H         1 <0>         0.1399
     42 H10         0.2826   -2.3380    0.8381 H         1 <0>         0.0642
     43 H11        -0.7121   -3.8142    0.7991 H         1 <0>         0.1235
     44 H12        -0.0418   -2.2355   -1.5453 H         1 <0>         0.0582
     45 H13        -1.2286   -3.5601   -1.6174 H         1 <0>         0.0804
     46 H14        -1.6676   -1.9388   -2.2065 H         1 <0>         0.0791
     47 H15        -1.9831    0.4858    3.8787 H         1 <0>         0.1380
     48 H16        -2.8377   -1.0748    3.9284 H         1 <0>         0.1390
     49 H17        -1.8341   -3.0072    5.0068 H         1 <0>         0.1316
     50 H18        -0.2714   -3.8080    6.7330 H         1 <0>         0.1364
     51 H19         1.5280   -2.3354    7.5435 H         1 <0>         0.1360
     52 H20         1.7652   -0.0623    6.6271 H         1 <0>         0.1363
     53 H21         0.2076    0.7356    4.8948 H         1 <0>         0.1309
     54 H22        -0.3880   -0.3473   -2.1959 H         1 <0>         0.4200
     55 H23         4.4234   -0.4009   -0.0205 H         1 <0>         0.1816
     56 H24         5.2909   -0.7617   -2.3166 H         1 <0>         0.1563
     57 H25         5.9165   -1.0671   -4.2399 H         1 <0>         0.2245
     58 H26         0.9259   -0.8057   -5.0332 H         1 <0>         0.1351
     59 H27         0.0549   -1.0410   -7.3184 H         1 <0>         0.1343
     60 H28         1.5920   -1.3968   -9.2051 H         1 <0>         0.1368
     61 H29         4.0145   -1.5132   -8.8298 H         1 <0>         0.1372
     62 H30        -0.4095   -0.5498    2.3666 H         1 <0>         0.4190
@<TRIPOS>BOND
     1    1    2 1
     2    1   33 1
     3    1   34 1
     4    1   35 1
     5    2    3 1
     6    2   17 1
     7    2   36 1
     8    3    8 1
     9    3    4 1
    10    3   37 1
    11    4    5 1
    12    4   38 1
    13    4   39 1
    14    5    6 1
    15    5   10 1
    16    5   62 1
    17    6    7 1
    18    6   40 1
    19    6   41 1
    20    7    8 1
    21    7   42 1
    22    7   43 1
    23    8    9 1
    24    9   44 1
    25    9   45 1
    26    9   46 1
    27   10   11 1
    28   10   47 1
    29   10   48 1
    30   11   16 ar
    31   11   12 ar
    32   12   13 ar
    33   12   49 1
    34   13   14 ar
    35   13   50 1
    36   14   15 ar
    37   14   51 1
    38   15   16 ar
    39   15   52 1
    40   16   53 1
    41   17   18 1
    42   17   54 1
    43   18   23 ar
    44   18   19 ar
    45   19   20 ar
    46   20   21 ar
    47   20   55 1
    48   21   22 ar
    49   21   56 1
    50   22   23 ar
    51   22   24 1
    52   24   28 1
    53   24   25 1
    54   25   26 2
    55   25   57 1
    56   26   27 1
    57   27   32 ar
    58   27   28 ar
    59   28   29 ar
    60   29   30 ar
    61   29   58 1
    62   30   31 ar
    63   30   59 1
    64   31   32 ar
    65   31   60 1
    66   32   61 1
@<TRIPOS>MOLECULE
CHEMBL568543__8
   61    65     0     0     0
SMALL
USER_CHARGES

@<TRIPOS>ATOM
      1 C1          0.2826    1.4841    0.1721 C.3       1 <0>        -0.1585
      2 C2          0.0368   -0.0234    0.2616 C.3       1 <0>         0.1291
      3 C3          0.8613   -0.6071    1.4107 C.3       1 <0>         0.0786
      4 C4          2.3368   -0.2525    1.2120 C.3       1 <0>         0.0628
      5 N1          2.8155   -0.8451   -0.0447 N.3       1 <0>        -0.5295
      6 C5          2.6639   -2.3067   -0.0257 C.3       1 <0>         0.0546
      7 C6          1.1884   -2.6613    0.1729 C.3       1 <0>         0.0527
      8 N2          0.7097   -2.0688    1.4296 N.3       1 <0>        -0.5315
      9 C7         -0.6840   -2.4501    1.6942 C.3       1 <0>         0.0120
     10 C8          4.2092   -0.4637   -0.3093 C.3       1 <0>         0.0943
     11 C9          4.5865   -0.8782   -1.7081 C.ar      1 <0>        -0.0785
     12 C10         5.1233   -2.1314   -1.9366 C.ar      1 <0>        -0.1149
     13 C11         5.4694   -2.5116   -3.2198 C.ar      1 <0>        -0.1210
     14 C12         5.2784   -1.6387   -4.2746 C.ar      1 <0>        -0.1193
     15 C13         4.7408   -0.3858   -4.0462 C.ar      1 <0>        -0.1204
     16 C14         4.3907   -0.0072   -2.7636 C.ar      1 <0>        -0.0966
     17 N3         -1.3861   -0.2725    0.5058 N.pl3     1 <0>        -0.6881
     18 C15        -2.2566   -0.4150   -0.5607 C.ar      1 <0>         0.5991
     19 N4         -1.7848   -0.3285   -1.7959 N.ar      1 <0>        -0.5701
     20 C16        -2.5871   -0.4599   -2.8411 C.ar      1 <0>         0.2228
     21 C17        -3.9347   -0.6904   -2.6342 C.ar      1 <0>        -0.3090
     22 C18        -4.4013   -0.7764   -1.3230 C.ar      1 <0>         0.4494
     23 N5         -3.5396   -0.6398   -0.3214 N.ar      1 <0>        -0.5931
     24 N6         -5.7514   -1.0071   -1.0671 N.pl3     1 <0>        -0.4402
     25 C19        -6.7346   -1.1755   -1.9979 C.2       1 <0>         0.2751
     26 N7         -7.8774   -1.3711   -1.4092 N.2       1 <0>        -0.4713
     27 C20        -7.7100   -1.3424   -0.0613 C.ar      1 <0>         0.0427
     28 C21        -6.3445   -1.1143    0.1786 C.ar      1 <0>         0.0573
     29 C22        -5.8729   -1.0403    1.4808 C.ar      1 <0>        -0.0895
     30 C23        -6.7466   -1.1943    2.5367 C.ar      1 <0>        -0.1034
     31 C24        -8.0951   -1.4232    2.3055 C.ar      1 <0>        -0.1200
     32 C25        -8.5822   -1.4917    1.0197 C.ar      1 <0>        -0.0662
     33 H1          1.3412    1.6695   -0.0096 H         1 <0>         0.0745
     34 H2         -0.3048    1.9000   -0.6465 H         1 <0>         0.0578
     35 H3         -0.0136    1.9568    1.1085 H         1 <0>         0.0517
     36 H4          0.3329   -0.4960   -0.6748 H         1 <0>         0.1170
     37 H5          0.5115   -0.1930    2.3563 H         1 <0>         0.0908
     38 H6          2.4477    0.8310    1.1686 H         1 <0>         0.0884
     39 H7          2.9205   -0.6450    2.0447 H         1 <0>         0.0496
     40 H8          3.0134   -2.7208   -0.9715 H         1 <0>         0.0852
     41 H9          3.2513   -2.7226    0.7929 H         1 <0>         0.0429
     42 H10         0.6047   -2.2688   -0.6597 H         1 <0>         0.0492
     43 H11         1.0775   -3.7448    0.2163 H         1 <0>         0.0773
     44 H12        -1.2977   -2.2092    0.8262 H         1 <0>         0.0468
     45 H13        -0.7367   -3.5210    1.8904 H         1 <0>         0.0641
     46 H14        -1.0519   -1.9032    2.5623 H         1 <0>         0.0643
     47 H15         4.3156    0.6165   -0.2092 H         1 <0>         0.0846
     48 H16         4.8641   -0.9611    0.4062 H         1 <0>         0.0453
     49 H17         5.2725   -2.8134   -1.1126 H         1 <0>         0.1176
     50 H18         5.8894   -3.4905   -3.3982 H         1 <0>         0.1206
     51 H19         5.5495   -1.9355   -5.2770 H         1 <0>         0.1203
     52 H20         4.5919    0.2963   -4.8702 H         1 <0>         0.1212
     53 H21         3.9673    0.9703   -2.5857 H         1 <0>         0.1216
     54 H22        -1.7181   -0.3376    1.4149 H         1 <0>         0.4115
     55 H23        -2.1933   -0.3875   -3.8441 H         1 <0>         0.1779
     56 H24        -4.6106   -0.8010   -3.4692 H         1 <0>         0.1502
     57 H25        -6.5855   -1.1497   -3.0673 H         1 <0>         0.2228
     58 H26        -4.8240   -0.8630    1.6675 H         1 <0>         0.1377
     59 H27        -6.3784   -1.1365    3.5504 H         1 <0>         0.1327
     60 H28        -8.7692   -1.5424    3.1408 H         1 <0>         0.1334
     61 H29        -9.6331   -1.6713    0.8473 H         1 <0>         0.1336
@<TRIPOS>BOND
     1    1    2 1
     2    1   33 1
     3    1   34 1
     4    1   35 1
     5    2    3 1
     6    2   17 1
     7    2   36 1
     8    3    8 1
     9    3    4 1
    10    3   37 1
    11    4    5 1
    12    4   38 1
    13    4   39 1
    14    5    6 1
    15    5   10 1
    16    6    7 1
    17    6   40 1
    18    6   41 1
    19    7    8 1
    20    7   42 1
    21    7   43 1
    22    8    9 1
    23    9   44 1
    24    9   45 1
    25    9   46 1
    26   10   11 1
    27   10   47 1
    28   10   48 1
    29   11   16 ar
    30   11   12 ar
    31   12   13 ar
    32   12   49 1
    33   13   14 ar
    34   13   50 1
    35   14   15 ar
    36   14   51 1
    37   15   16 ar
    38   15   52 1
    39   16   53 1
    40   17   18 1
    41   17   54 1
    42   18   23 ar
    43   18   19 ar
    44   19   20 ar
    45   20   21 ar
    46   20   55 1
    47   21   22 ar
    48   21   56 1
    49   22   23 ar
    50   22   24 1
    51   24   28 1
    52   24   25 1
    53   25   26 2
    54   25   57 1
    55   26   27 1
    56   27   32 ar
    57   27   28 ar
    58   28   29 ar
    59   29   30 ar
    60   29   58 1
    61   30   31 ar
    62   30   59 1
    63   31   32 ar
    64   31   60 1
    65   32   61 1
@<TRIPOS>MOLECULE
CHEMBL568543__9
   62    66     0     0     0
SMALL
USER_CHARGES

@<TRIPOS>ATOM
      1 C1         -1.5968   -0.6364    0.7050 C.3       1 <0>        -0.1682
      2 C2         -0.2281   -0.0012    0.4520 C.3       1 <0>         0.1465
      3 C3          0.7292   -0.3855    1.5820 C.3       1 <0>         0.0240
      4 C4          0.8615   -1.9088    1.6426 C.3       1 <0>         0.0288
      5 N1          1.7962   -2.2742    2.7163 N.3       1 <0>        -0.5292
      6 C5          3.1141   -1.6636    2.4913 C.3       1 <0>         0.0179
      7 C6          2.9632   -0.1423    2.4237 C.3       1 <0>        -0.0023
      8 N2          2.0477    0.2111    1.3308 N.4       1 <0>        -0.3863
      9 C7          1.9173    1.6723    1.2548 C.3       1 <0>        -0.0507
     10 C8          1.9070   -3.7335    2.8438 C.3       1 <0>         0.0981
     11 C9          2.6716   -4.0715    4.0977 C.ar      1 <0>        -0.0971
     12 C10         4.0475   -4.1973    4.0555 C.ar      1 <0>        -0.1189
     13 C11         4.7488   -4.5073    5.2057 C.ar      1 <0>        -0.1175
     14 C12         4.0742   -4.6913    6.3981 C.ar      1 <0>        -0.1085
     15 C13         2.6983   -4.5646    6.4405 C.ar      1 <0>        -0.1161
     16 C14         1.9974   -4.2503    5.2912 C.ar      1 <0>        -0.0943
     17 N3          0.3052   -0.4826   -0.8247 N.pl3     1 <0>        -0.7161
     18 C15        -0.0555    0.1429   -2.0053 C.ar      1 <0>         0.5908
     19 N4         -0.8801    1.1793   -1.9616 N.ar      1 <0>        -0.5758
     20 C16        -1.2473    1.8033   -3.0703 C.ar      1 <0>         0.2243
     21 C17        -0.7602    1.3628   -4.2871 C.ar      1 <0>        -0.2885
     22 C18         0.1057    0.2699   -4.3008 C.ar      1 <0>         0.4578
     23 N5          0.4362   -0.3057   -3.1502 N.ar      1 <0>        -0.5871
     24 N6          0.6206   -0.2086   -5.5039 N.pl3     1 <0>        -0.4441
     25 C19         0.3720    0.2938   -6.7477 C.2       1 <0>         0.2750
     26 N7          1.0160   -0.3944   -7.6437 N.2       1 <0>        -0.4610
     27 C20         1.7225   -1.3857   -7.0403 C.ar      1 <0>         0.0450
     28 C21         1.4844   -1.2784   -5.6597 C.ar      1 <0>         0.0538
     29 C22         2.0870   -2.1671   -4.7818 C.ar      1 <0>        -0.0950
     30 C23         2.9212   -3.1521   -5.2676 C.ar      1 <0>        -0.0999
     31 C24         3.1625   -3.2602   -6.6295 C.ar      1 <0>        -0.1176
     32 C25         2.5666   -2.3919   -7.5161 C.ar      1 <0>        -0.0590
     33 H1         -1.9323   -0.3877    1.7119 H         1 <0>         0.0816
     34 H2         -2.3143   -0.2550   -0.0216 H         1 <0>         0.0845
     35 H3         -1.5190   -1.7190    0.6050 H         1 <0>         0.0695
     36 H4         -0.3318    1.0833    0.4167 H         1 <0>         0.1230
     37 H5          0.3383   -0.0168    2.5304 H         1 <0>         0.1638
     38 H6         -0.1143   -2.3509    1.8438 H         1 <0>         0.1308
     39 H7          1.2394   -2.2792    0.6896 H         1 <0>         0.0573
     40 H8          3.7817   -1.9268    3.3117 H         1 <0>         0.1299
     41 H9          3.5291   -2.0299    1.5523 H         1 <0>         0.0607
     42 H10         2.5609    0.2252    3.3678 H         1 <0>         0.1410
     43 H11         3.9374    0.3117    2.2427 H         1 <0>         0.1378
     44 H12         1.4090    2.0386    2.1468 H         1 <0>         0.1284
     45 H13         2.9078    2.1226    1.1903 H         1 <0>         0.1266
     46 H14         1.3383    1.9399    0.3709 H         1 <0>         0.1232
     47 H15         0.9098   -4.1702    2.8974 H         1 <0>         0.0973
     48 H16         2.4334   -4.1349    1.9779 H         1 <0>         0.0563
     49 H17         4.5746   -4.0536    3.1239 H         1 <0>         0.1173
     50 H18         5.8238   -4.6063    5.1726 H         1 <0>         0.1255
     51 H19         4.6221   -4.9342    7.2966 H         1 <0>         0.1266
     52 H20         2.1712   -4.7086    7.3721 H         1 <0>         0.1270
     53 H21         0.9229   -4.1477    5.3251 H         1 <0>         0.1239
     54 H22         0.9112   -1.2398   -0.8425 H         1 <0>         0.4104
     55 H23        -1.9201    2.6469   -3.0246 H         1 <0>         0.1860
     56 H24        -1.0443    1.8538   -5.2061 H         1 <0>         0.1586
     57 H25        -0.2665    1.1392   -6.9576 H         1 <0>         0.2259
     58 H26         1.9038   -2.0878   -3.7204 H         1 <0>         0.1327
     59 H27         3.3901   -3.8436   -4.5833 H         1 <0>         0.1330
     60 H28         3.8180   -4.0356   -6.9975 H         1 <0>         0.1371
     61 H29         2.7599   -2.4814   -8.5749 H         1 <0>         0.1381
     62 H30         2.4145   -0.1393    0.4586 H         1 <0>         0.4176
@<TRIPOS>BOND
     1    1    2 1
     2    1   33 1
     3    1   34 1
     4    1   35 1
     5    2    3 1
     6    2   17 1
     7    2   36 1
     8    3    8 1
     9    3    4 1
    10    3   37 1
    11    4    5 1
    12    4   38 1
    13    4   39 1
    14    5    6 1
    15    5   10 1
    16    6    7 1
    17    6   40 1
    18    6   41 1
    19    7    8 1
    20    7   42 1
    21    7   43 1
    22    8    9 1
    23    8   62 1
    24    9   44 1
    25    9   45 1
    26    9   46 1
    27   10   11 1
    28   10   47 1
    29   10   48 1
    30   11   16 ar
    31   11   12 ar
    32   12   13 ar
    33   12   49 1
    34   13   14 ar
    35   13   50 1
    36   14   15 ar
    37   14   51 1
    38   15   16 ar
    39   15   52 1
    40   16   53 1
    41   17   18 1
    42   17   54 1
    43   18   23 ar
    44   18   19 ar
    45   19   20 ar
    46   20   21 ar
    47   20   55 1
    48   21   22 ar
    49   21   56 1
    50   22   23 ar
    51   22   24 1
    52   24   28 1
    53   24   25 1
    54   25   26 2
    55   25   57 1
    56   26   27 1
    57   27   32 ar
    58   27   28 ar
    59   28   29 ar
    60   29   30 ar
    61   29   58 1
    62   30   31 ar
    63   30   59 1
    64   31   32 ar
    65   31   60 1
    66   32   61 1
@<TRIPOS>MOLECULE
CHEMBL568543__10
   62    66     0     0     0
SMALL
USER_CHARGES

@<TRIPOS>ATOM
      1 C1          0.2607   -0.5786   -1.7021 C.3       1 <0>        -0.1749
      2 C2         -0.2432    0.0181   -0.3864 C.3       1 <0>         0.1725
      3 C3         -1.6957   -0.4048   -0.1578 C.3       1 <0>         0.0509
      4 C4         -1.7804   -1.9318   -0.1034 C.3       1 <0>        -0.0069
      5 N1         -3.1718   -2.3370    0.1361 N.4       1 <0>        -0.3829
      6 C5         -3.6284   -1.7907    1.4208 C.3       1 <0>        -0.0087
      7 C6         -3.5591   -0.2626    1.3791 C.3       1 <0>         0.0277
      8 N2         -2.1752    0.1551    1.1137 N.3       1 <0>        -0.5330
      9 C7         -2.0564    1.6193    1.1221 C.3       1 <0>         0.0192
     10 C8         -3.2556   -3.8032    0.1702 C.3       1 <0>         0.0449
     11 C9         -4.6982   -4.2212    0.2929 C.ar      1 <0>        -0.1624
     12 C10        -5.2665   -4.3850    1.5424 C.ar      1 <0>        -0.0969
     13 C11        -6.5898   -4.7685    1.6549 C.ar      1 <0>        -0.1130
     14 C12        -7.3450   -4.9876    0.5180 C.ar      1 <0>        -0.0831
     15 C13        -6.7770   -4.8228   -0.7314 C.ar      1 <0>        -0.1127
     16 C14        -5.4549   -4.4352   -0.8440 C.ar      1 <0>        -0.0936
     17 N3          0.5865   -0.4671    0.7192 N.pl3     1 <0>        -0.6866
     18 C15         1.7692    0.1798    1.0326 C.ar      1 <0>         0.5985
     19 N4          2.1329    1.2396    0.3253 N.ar      1 <0>        -0.5786
     20 C16         3.2572    1.8846    0.5959 C.ar      1 <0>         0.2243
     21 C17         4.0585    1.4410    1.6319 C.ar      1 <0>        -0.2986
     22 C18         3.6491    0.3231    2.3578 C.ar      1 <0>         0.4548
     23 N5          2.5066   -0.2727    2.0352 N.ar      1 <0>        -0.5898
     24 N6          4.4252   -0.1593    3.4098 N.pl3     1 <0>        -0.4427
     25 C19         5.6070    0.3618    3.8492 C.2       1 <0>         0.2761
     26 N7          6.0583   -0.3370    4.8489 N.2       1 <0>        -0.4655
     27 C20         5.2003   -1.3543    5.1220 C.ar      1 <0>         0.0447
     28 C21         4.1381   -1.2528    4.2078 C.ar      1 <0>         0.0555
     29 C22         3.0961   -2.1671    4.2524 C.ar      1 <0>        -0.0923
     30 C23         3.1049   -3.1718    5.1971 C.ar      1 <0>        -0.1029
     31 C24         4.1494   -3.2744    6.1043 C.ar      1 <0>        -0.1193
     32 C25         5.1959   -2.3807    6.0696 C.ar      1 <0>        -0.0614
     33 H1          1.2542   -0.1875   -1.9215 H         1 <0>         0.0803
     34 H2          0.3087   -1.6639   -1.6140 H         1 <0>         0.0588
     35 H3         -0.4219   -0.3093   -2.5081 H         1 <0>         0.0733
     36 H4         -0.1847    1.1054   -0.4346 H         1 <0>         0.1144
     37 H5         -2.3151   -0.0348   -0.9748 H         1 <0>         0.0851
     38 H6         -1.4385   -2.3486   -1.0508 H         1 <0>         0.1425
     39 H7         -1.1499   -2.3021    0.7050 H         1 <0>         0.1346
     40 H8         -4.6567   -2.1029    1.6035 H         1 <0>         0.1376
     41 H9         -2.9885   -2.1617    2.2214 H         1 <0>         0.1375
     42 H10        -4.2095    0.1095    0.5875 H         1 <0>         0.0615
     43 H11        -3.8838    0.1425    2.3375 H         1 <0>         0.1252
     44 H12        -2.5666    2.0303    0.2510 H         1 <0>         0.0421
     45 H13        -2.5113    2.0155    2.0300 H         1 <0>         0.0828
     46 H14        -1.0032    1.8986    1.0917 H         1 <0>         0.0850
     47 H15        -2.8355   -4.2126   -0.7485 H         1 <0>         0.1378
     48 H16        -2.6943   -4.1794    1.0255 H         1 <0>         0.1370
     49 H17        -4.6764   -4.2139    2.4306 H         1 <0>         0.1314
     50 H18        -7.0335   -4.8972    2.6311 H         1 <0>         0.1367
     51 H19        -8.3787   -5.2878    0.6060 H         1 <0>         0.1363
     52 H20        -7.3670   -4.9943   -1.6197 H         1 <0>         0.1364
     53 H21        -5.0122   -4.3029   -1.8201 H         1 <0>         0.1309
     54 H22         0.3069   -1.2418    1.2317 H         1 <0>         0.4097
     55 H23         3.5455    2.7473    0.0137 H         1 <0>         0.1818
     56 H24         4.9807    1.9488    1.8731 H         1 <0>         0.1546
     57 H25         6.0964    1.2276    3.4283 H         1 <0>         0.2248
     58 H26         2.2797   -2.0921    3.5494 H         1 <0>         0.1345
     59 H27         2.2931   -3.8832    5.2311 H         1 <0>         0.1313
     60 H28         4.1447   -4.0655    6.8396 H         1 <0>         0.1352
     61 H29         6.0051   -2.4660    6.7797 H         1 <0>         0.1365
     62 H30        -3.7571   -1.9842   -0.6063 H         1 <0>         0.4210
@<TRIPOS>BOND
     1    1    2 1
     2    1   33 1
     3    1   34 1
     4    1   35 1
     5    2    3 1
     6    2   17 1
     7    2   36 1
     8    3    8 1
     9    3    4 1
    10    3   37 1
    11    4    5 1
    12    4   38 1
    13    4   39 1
    14    5    6 1
    15    5   10 1
    16    5   62 1
    17    6    7 1
    18    6   40 1
    19    6   41 1
    20    7    8 1
    21    7   42 1
    22    7   43 1
    23    8    9 1
    24    9   44 1
    25    9   45 1
    26    9   46 1
    27   10   11 1
    28   10   47 1
    29   10   48 1
    30   11   16 ar
    31   11   12 ar
    32   12   13 ar
    33   12   49 1
    34   13   14 ar
    35   13   50 1
    36   14   15 ar
    37   14   51 1
    38   15   16 ar
    39   15   52 1
    40   16   53 1
    41   17   18 1
    42   17   54 1
    43   18   23 ar
    44   18   19 ar
    45   19   20 ar
    46   20   21 ar
    47   20   55 1
    48   21   22 ar
    49   21   56 1
    50   22   23 ar
    51   22   24 1
    52   24   28 1
    53   24   25 1
    54   25   26 2
    55   25   57 1
    56   26   27 1
    57   27   32 ar
    58   27   28 ar
    59   28   29 ar
    60   29   30 ar
    61   29   58 1
    62   30   31 ar
    63   30   59 1
    64   31   32 ar
    65   31   60 1
    66   32   61 1
@<TRIPOS>MOLECULE
CHEMBL568543__11
   61    65     0     0     0
SMALL
USER_CHARGES

@<TRIPOS>ATOM
      1 C1         -1.5988   -0.6063    0.6767 C.3       1 <0>        -0.1656
      2 C2         -0.2242    0.0215    0.4369 C.3       1 <0>         0.1659
      3 C3          0.7229   -0.3765    1.5707 C.3       1 <0>         0.0779
      4 C4          0.8456   -1.9012    1.6221 C.3       1 <0>         0.0608
      5 N1          1.7860   -2.2788    2.6864 N.3       1 <0>        -0.5317
      6 C5          3.1115   -1.6911    2.4469 C.3       1 <0>         0.0526
      7 C6          2.9888   -0.1664    2.3956 C.3       1 <0>         0.0578
      8 N2          2.0484    0.2112    1.3313 N.3       1 <0>        -0.5362
      9 C7          1.9608    1.6717    1.1999 C.3       1 <0>         0.0236
     10 C8          1.8736   -3.7393    2.8177 C.3       1 <0>         0.0943
     11 C9          2.6464   -4.0862    4.0641 C.ar      1 <0>        -0.0797
     12 C10         4.0195   -4.2353    4.0070 C.ar      1 <0>        -0.1147
     13 C11         4.7283   -4.5534    5.1503 C.ar      1 <0>        -0.1205
     14 C12         4.0642   -4.7220    6.3508 C.ar      1 <0>        -0.1189
     15 C13         2.6912   -4.5720    6.4081 C.ar      1 <0>        -0.1206
     16 C14         1.9828   -4.2497    5.2657 C.ar      1 <0>        -0.0982
     17 N3          0.3144   -0.4551   -0.8394 N.pl3     1 <0>        -0.6725
     18 C15        -0.0344    0.1805   -2.0182 C.ar      1 <0>         0.6030
     19 N4         -0.8524    1.2220   -1.9731 N.ar      1 <0>        -0.5773
     20 C16        -1.2081    1.8557   -3.0801 C.ar      1 <0>         0.2232
     21 C17        -0.7158    1.4199   -4.2965 C.ar      1 <0>        -0.3117
     22 C18         0.1429    0.3214   -4.3117 C.ar      1 <0>         0.4502
     23 N5          0.4620   -0.2638   -3.1628 N.ar      1 <0>        -0.5927
     24 N6          0.6627   -0.1526   -5.5145 N.pl3     1 <0>        -0.4401
     25 C19         0.4257    0.3596   -6.7566 C.2       1 <0>         0.2752
     26 N7          1.0710   -0.3270   -7.6528 N.2       1 <0>        -0.4720
     27 C20         1.7669   -1.3269   -7.0514 C.ar      1 <0>         0.0426
     28 C21         1.5204   -1.2271   -5.6717 C.ar      1 <0>         0.0577
     29 C22         2.1113   -2.1255   -4.7957 C.ar      1 <0>        -0.0886
     30 C23         2.9422   -3.1127   -5.2824 C.ar      1 <0>        -0.1041
     31 C24         3.1918   -3.2136   -6.6433 C.ar      1 <0>        -0.1201
     32 C25         2.6076   -2.3355   -7.5281 C.ar      1 <0>        -0.0667
     33 H1         -1.9425   -0.3559    1.6803 H         1 <0>         0.0696
     34 H2         -2.3071   -0.2209   -0.0567 H         1 <0>         0.0664
     35 H3         -1.5259   -1.6893    0.5772 H         1 <0>         0.0592
     36 H4         -0.3205    1.1068    0.4081 H         1 <0>         0.0991
     37 H5          0.3289   -0.0109    2.5189 H         1 <0>         0.0694
     38 H6         -0.1315   -2.3379    1.8284 H         1 <0>         0.0866
     39 H7          1.2137   -2.2689    0.6642 H         1 <0>         0.0406
     40 H8          3.7863   -1.9747    3.2546 H         1 <0>         0.0859
     41 H9          3.5053   -2.0564    1.4985 H         1 <0>         0.0427
     42 H10         2.6207    0.2013    3.3534 H         1 <0>         0.0443
     43 H11         3.9660    0.2703    2.1892 H         1 <0>         0.0812
     44 H12         1.4462    2.0843    2.0677 H         1 <0>         0.0295
     45 H13         2.9647    2.0919    1.1391 H         1 <0>         0.0677
     46 H14         1.4065    1.9226    0.2956 H         1 <0>         0.0703
     47 H15         0.8698   -4.1590    2.8839 H         1 <0>         0.0844
     48 H16         2.3834   -4.1525    1.9473 H         1 <0>         0.0453
     49 H17         4.5384   -4.1035    3.0690 H         1 <0>         0.1180
     50 H18         5.8010   -4.6706    5.1055 H         1 <0>         0.1214
     51 H19         4.6179   -4.9713    7.2439 H         1 <0>         0.1211
     52 H20         2.1722   -4.7041    7.3460 H         1 <0>         0.1219
     53 H21         0.9106   -4.1288    5.3112 H         1 <0>         0.1216
     54 H22         0.9155   -1.2162   -0.8582 H         1 <0>         0.4146
     55 H23        -1.8756    2.7034   -3.0333 H         1 <0>         0.1775
     56 H24        -0.9905    1.9189   -5.2141 H         1 <0>         0.1494
     57 H25        -0.2058    1.2106   -6.9651 H         1 <0>         0.2228
     58 H26         1.9216   -2.0519   -3.7350 H         1 <0>         0.1381
     59 H27         3.4019   -3.8118   -4.5996 H         1 <0>         0.1320
     60 H28         3.8446   -3.9908   -7.0121 H         1 <0>         0.1330
     61 H29         2.8073   -2.4194   -8.5862 H         1 <0>         0.1333
@<TRIPOS>BOND
     1    1    2 1
     2    1   33 1
     3    1   34 1
     4    1   35 1
     5    2    3 1
     6    2   17 1
     7    2   36 1
     8    3    8 1
     9    3    4 1
    10    3   37 1
    11    4    5 1
    12    4   38 1
    13    4   39 1
    14    5    6 1
    15    5   10 1
    16    6    7 1
    17    6   40 1
    18    6   41 1
    19    7    8 1
    20    7   42 1
    21    7   43 1
    22    8    9 1
    23    9   44 1
    24    9   45 1
    25    9   46 1
    26   10   11 1
    27   10   47 1
    28   10   48 1
    29   11   16 ar
    30   11   12 ar
    31   12   13 ar
    32   12   49 1
    33   13   14 ar
    34   13   50 1
    35   14   15 ar
    36   14   51 1
    37   15   16 ar
    38   15   52 1
    39   16   53 1
    40   17   18 1
    41   17   54 1
    42   18   23 ar
    43   18   19 ar
    44   19   20 ar
    45   20   21 ar
    46   20   55 1
    47   21   22 ar
    48   21   56 1
    49   22   23 ar
    50   22   24 1
    51   24   28 1
    52   24   25 1
    53   25   26 2
    54   25   57 1
    55   26   27 1
    56   27   32 ar
    57   27   28 ar
    58   28   29 ar
    59   29   30 ar
    60   29   58 1
    61   30   31 ar
    62   30   59 1
    63   31   32 ar
    64   31   60 1
    65   32   61 1
@<TRIPOS>MOLECULE
CHEMBL320280
   38    42     0     0     0
SMALL
USER_CHARGES

@<TRIPOS>ATOM
      1 C1          2.5239   -1.2117    1.7694 C.3       1 <0>        -0.1129
      2 C2          1.3246   -1.3317    0.8648 C.ar      1 <0>        -0.0561
      3 C3          1.4173   -2.0437   -0.3155 C.ar      1 <0>        -0.1119
      4 C4          0.3178   -2.1550   -1.1462 C.ar      1 <0>        -0.0931
      5 C5         -0.8789   -1.5544   -0.7992 C.ar      1 <0>        -0.1133
      6 C6         -0.9787   -0.8404    0.3795 C.ar      1 <0>        -0.0185
      7 C7          0.1238   -0.7316    1.2195 C.ar      1 <0>         0.1490
      8 N1          0.0251   -0.0151    2.4162 N.pl3     1 <0>        -0.6450
      9 C8         -0.3649   -0.6581    3.5771 C.2       1 <0>         0.5075
     10 C9         -0.4740    0.0902    4.8272 C.2       1 <0>        -0.0813
     11 C10        -0.2668    1.4002    5.1836 C.2       1 <0>         0.0488
     12 N2         -0.5275    1.5068    6.4887 N.2       1 <0>        -0.4666
     13 C11        -0.8847    0.3404    6.9666 C.2       1 <0>         0.2037
     14 N3         -0.8665   -0.5691    5.9773 N.pl3     1 <0>        -0.3600
     15 C12        -1.1452   -1.9299    5.9079 C.ar      1 <0>         0.0575
     16 C13        -1.5405   -2.6218    7.0444 C.ar      1 <0>        -0.0900
     17 C14        -1.8158   -3.9753    6.9736 C.ar      1 <0>         0.0402
     18 C15        -1.6976   -4.6526    5.7575 C.ar      1 <0>         0.0623
     19 C16        -1.3057   -3.9748    4.6211 C.ar      1 <0>        -0.0776
     20 C17        -1.0253   -2.6042    4.6826 C.ar      1 <0>         0.1703
     21 N4         -0.6435   -1.9432    3.5569 N.2       1 <0>        -0.5443
     22 O1         -2.0222   -5.9643    5.9578 O.3       1 <0>        -0.3006
     23 C18        -1.9420   -6.1679    7.3807 C.3       1 <0>         0.2125
     24 O2         -2.2147   -4.8654    7.9299 O.3       1 <0>        -0.3016
     25 Cl1        -2.4805   -0.0858    0.8141 Cl        1 <0>        -0.0583
     26 H1          2.5293   -2.0403    2.4775 H         1 <0>         0.0746
     27 H2          3.4346   -1.2392    1.1710 H         1 <0>         0.0726
     28 H3          2.4754   -0.2687    2.3140 H         1 <0>         0.0674
     29 H4          2.3502   -2.5137   -0.5898 H         1 <0>         0.1336
     30 H5          0.3935   -2.7120   -2.0684 H         1 <0>         0.1359
     31 H6         -1.7359   -1.6434   -1.4503 H         1 <0>         0.1371
     32 H7          0.2301    0.9328    2.4323 H         1 <0>         0.4240
     33 H8          0.0496    2.1981    4.5281 H         1 <0>         0.1870
     34 H9         -1.1518    0.1411    7.9939 H         1 <0>         0.2178
     35 H10        -1.6330   -2.1019    7.9866 H         1 <0>         0.1458
     36 H11        -1.2161   -4.5020    3.6828 H         1 <0>         0.1549
     37 H12        -2.6938   -6.8862    7.7076 H         1 <0>         0.1379
     38 H13        -0.9437   -6.5014    7.6640 H         1 <0>         0.0903
@<TRIPOS>BOND
     1    1    2 1
     2    1   26 1
     3    1   27 1
     4    1   28 1
     5    2    7 ar
     6    2    3 ar
     7    3    4 ar
     8    3   29 1
     9    4    5 ar
    10    4   30 1
    11    5    6 ar
    12    5   31 1
    13    6    7 ar
    14    6   25 1
    15    7    8 1
    16    8    9 1
    17    8   32 1
    18    9   21 2
    19    9   10 1
    20   10   14 1
    21   10   11 2
    22   11   12 1
    23   11   33 1
    24   12   13 2
    25   13   14 1
    26   13   34 1
    27   14   15 1
    28   15   20 ar
    29   15   16 ar
    30   16   17 ar
    31   16   35 1
    32   17   24 1
    33   17   18 ar
    34   18   19 ar
    35   18   22 1
    36   19   20 ar
    37   19   36 1
    38   20   21 1
    39   22   23 1
    40   23   24 1
    41   23   37 1
    42   23   38 1
@<TRIPOS>MOLECULE
CHEMBL421600
   41    45     0     0     0
SMALL
USER_CHARGES

@<TRIPOS>ATOM
      1 C1          2.5243   -1.2112    1.7699 C.3       1 <0>        -0.1127
      2 C2          1.3252   -1.3315    0.8651 C.ar      1 <0>        -0.0565
      3 C3          1.4183   -2.0436   -0.3151 C.ar      1 <0>        -0.1120
      4 C4          0.3189   -2.1553   -1.1459 C.ar      1 <0>        -0.0938
      5 C5         -0.8780   -1.5549   -0.7992 C.ar      1 <0>        -0.1136
      6 C6         -0.9782   -0.8408    0.3794 C.ar      1 <0>        -0.0188
      7 C7          0.1242   -0.7317    1.2196 C.ar      1 <0>         0.1512
      8 N1          0.0251   -0.0151    2.4162 N.pl3     1 <0>        -0.6470
      9 C8         -0.3649   -0.6581    3.5771 C.2       1 <0>         0.5032
     10 C9         -0.4741    0.0903    4.8272 C.2       1 <0>        -0.0801
     11 C10        -0.2675    1.4003    5.1835 C.2       1 <0>         0.0461
     12 N2         -0.5274    1.5067    6.4888 N.2       1 <0>        -0.4680
     13 C11        -0.8838    0.3401    6.9668 C.2       1 <0>         0.2023
     14 N3         -0.8662   -0.5692    5.9773 N.pl3     1 <0>        -0.3602
     15 C12        -1.1457   -1.9297    5.9077 C.ar      1 <0>         0.0555
     16 C13        -1.5406   -2.6221    7.0435 C.ar      1 <0>        -0.1039
     17 C14        -1.8192   -3.9765    6.9725 C.ar      1 <0>         0.0604
     18 C15        -1.7046   -4.6519    5.7582 C.ar      1 <0>         0.0795
     19 C16        -1.3097   -3.9736    4.6212 C.ar      1 <0>        -0.0893
     20 C17        -1.0263   -2.6041    4.6823 C.ar      1 <0>         0.1608
     21 N4         -0.6435   -1.9433    3.5568 N.2       1 <0>        -0.5434
     22 O1         -1.9836   -5.9825    5.6744 O.3       1 <0>        -0.3004
     23 C18        -2.0172   -6.7124    6.9053 C.3       1 <0>         0.0192
     24 C19        -2.8377   -5.9055    7.9207 C.3       1 <0>         0.0199
     25 O2         -2.2025   -4.6353    8.1014 O.3       1 <0>        -0.3023
     26 Cl1        -2.4802   -0.0865    0.8137 Cl        1 <0>        -0.0588
     27 H1          2.5297   -2.0397    2.4781 H         1 <0>         0.0745
     28 H2          3.4351   -1.2385    1.1717 H         1 <0>         0.0722
     29 H3          2.4754   -0.2681    2.3144 H         1 <0>         0.0674
     30 H4          2.3513   -2.5134   -0.5892 H         1 <0>         0.1333
     31 H5          0.3949   -2.7123   -2.0681 H         1 <0>         0.1355
     32 H6         -1.7349   -1.6441   -1.4505 H         1 <0>         0.1368
     33 H7          0.2298    0.9329    2.4322 H         1 <0>         0.4233
     34 H8          0.0476    2.1986    4.5278 H         1 <0>         0.1860
     35 H9         -1.1499    0.1405    7.9943 H         1 <0>         0.2168
     36 H10        -1.6313   -2.1027    7.9860 H         1 <0>         0.1450
     37 H11        -1.2200   -4.5011    3.6831 H         1 <0>         0.1539
     38 H12        -2.4848   -7.6837    6.7440 H         1 <0>         0.1276
     39 H13        -1.0026   -6.8498    7.2790 H         1 <0>         0.0817
     40 H14        -3.8498   -5.7602    7.5430 H         1 <0>         0.0814
     41 H15        -2.8723   -6.4377    8.8713 H         1 <0>         0.1274
@<TRIPOS>BOND
     1    1    2 1
     2    1   27 1
     3    1   28 1
     4    1   29 1
     5    2    7 ar
     6    2    3 ar
     7    3    4 ar
     8    3   30 1
     9    4    5 ar
    10    4   31 1
    11    5    6 ar
    12    5   32 1
    13    6    7 ar
    14    6   26 1
    15    7    8 1
    16    8    9 1
    17    8   33 1
    18    9   21 2
    19    9   10 1
    20   10   14 1
    21   10   11 2
    22   11   12 1
    23   11   34 1
    24   12   13 2
    25   13   14 1
    26   13   35 1
    27   14   15 1
    28   15   20 ar
    29   15   16 ar
    30   16   17 ar
    31   16   36 1
    32   17   25 1
    33   17   18 ar
    34   18   19 ar
    35   18   22 1
    36   19   20 ar
    37   19   37 1
    38   20   21 1
    39   22   23 1
    40   23   24 1
    41   23   38 1
    42   23   39 1
    43   24   25 1
    44   24   40 1
    45   24   41 1
@<TRIPOS>MOLECULE
CHEMBL521887
   65    69     0     0     0
SMALL
USER_CHARGES

@<TRIPOS>ATOM
      1 C1          0.0022    1.5025    0.0564 C.3       1 <0>        -0.1206
      2 C2          0.0191   -0.0042    0.0305 C.ar      1 <0>        -0.0773
      3 C3         -0.5713   -0.7188    1.0539 C.ar      1 <0>        -0.0991
      4 C4         -0.5587   -2.1003    1.0343 C.ar      1 <0>        -0.1342
      5 C5          0.0484   -2.7786   -0.0160 C.ar      1 <0>         0.1322
      6 C6          0.6435   -2.0684   -1.0475 C.ar      1 <0>        -0.0997
      7 C7          0.6257   -0.6760   -1.0295 C.ar      1 <0>        -0.0336
      8 C8          1.2551    0.0903   -2.1330 C.ar      1 <0>        -0.0438
      9 C9          0.5389    1.1236   -2.7585 C.ar      1 <0>        -0.0817
     10 C10         1.0912    1.8417   -3.7719 C.ar      1 <0>        -0.1102
     11 C11         2.3949    1.5512   -4.2027 C.ar      1 <0>        -0.0216
     12 C12         3.0117    2.2648   -5.2463 C.ar      1 <0>        -0.1549
     13 C13         4.2799    1.9267   -5.6101 C.ar      1 <0>         0.0785
     14 N1          4.9436    0.9482   -5.0100 N.ar      1 <0>        -0.4868
     15 C14         4.4324    0.2404   -4.0302 C.ar      1 <0>         0.1474
     16 C15         3.1294    0.5091   -3.5780 C.ar      1 <0>        -0.1111
     17 C16         2.5432   -0.2164   -2.5314 C.ar      1 <0>        -0.0704
     18 N2          0.0595   -4.1771   -0.0321 N.am      1 <0>        -0.6668
     19 C17        -0.0391   -4.8384   -1.2024 C.2       1 <0>         0.5540
     20 O1         -0.0529   -4.2215   -2.2498 O.2       1 <0>        -0.5070
     21 C18        -0.1305   -6.3137   -1.2123 C.ar      1 <0>        -0.1229
     22 C19        -0.1206   -7.0247   -0.0111 C.ar      1 <0>        -0.0842
     23 C20        -0.2062   -8.4015   -0.0274 C.ar      1 <0>        -0.1243
     24 C21        -0.3011   -9.0776   -1.2309 C.ar      1 <0>        -0.0680
     25 C22        -0.3109   -8.3789   -2.4251 C.ar      1 <0>        -0.0990
     26 C23        -0.2327   -7.0016   -2.4226 C.ar      1 <0>        -0.0530
     27 C24        -0.3937  -10.5817   -1.2410 C.3       1 <0>         0.0935
     28 N3         -1.8048  -10.9858   -1.1829 N.3       1 <0>        -0.5346
     29 C25        -2.4070  -10.6123    0.1048 C.3       1 <0>         0.0185
     30 C26        -3.8884  -10.9960    0.1020 C.3       1 <0>        -0.0025
     31 N4         -4.0194  -12.4424   -0.1181 N.4       1 <0>        -0.3884
     32 C27        -3.4355  -12.7963   -1.4187 C.3       1 <0>        -0.0025
     33 C28        -1.9504  -12.4275   -1.4286 C.3       1 <0>         0.0250
     34 C29        -5.4408  -12.8130   -0.1027 C.3       1 <0>        -0.0460
     35 H1         -0.8941    1.8645   -0.4472 H         1 <0>         0.0738
     36 H2          0.0029    1.8481    1.0902 H         1 <0>         0.0696
     37 H3          0.8857    1.8846   -0.4550 H         1 <0>         0.0717
     38 H4         -1.0440   -0.1963    1.8724 H         1 <0>         0.1317
     39 H5         -1.0216   -2.6546    1.8374 H         1 <0>         0.1264
     40 H6          1.1162   -2.5935   -1.8644 H         1 <0>         0.1422
     41 H7         -0.4646    1.3507   -2.4302 H         1 <0>         0.1304
     42 H8          0.5284    2.6332   -4.2442 H         1 <0>         0.1351
     43 H9          2.4895    3.0652   -5.7496 H         1 <0>         0.1399
     44 H10         4.7586    2.4711   -6.4107 H         1 <0>         0.1551
     45 H11         5.0121   -0.5475   -3.5724 H         1 <0>         0.1631
     46 H12         3.0907   -1.0095   -2.0439 H         1 <0>         0.1336
     47 H13         0.1382   -4.6712    0.7989 H         1 <0>         0.4094
     48 H14        -0.0458   -6.4982    0.9289 H         1 <0>         0.1293
     49 H15        -0.1986   -8.9528    0.9012 H         1 <0>         0.1269
     50 H16        -0.3846   -8.9127   -3.3610 H         1 <0>         0.1344
     51 H17        -0.2454   -6.4571   -3.3552 H         1 <0>         0.1424
     52 H18         0.0573  -10.9673   -2.1553 H         1 <0>         0.1011
     53 H19         0.1354  -10.9841   -0.3771 H         1 <0>         0.0599
     54 H20        -1.8965  -11.1386    0.9113 H         1 <0>         0.0620
     55 H21        -2.3102   -9.5369    0.2533 H         1 <0>         0.1260
     56 H22        -4.3337  -10.7328    1.0615 H         1 <0>         0.1359
     57 H23        -4.4013  -10.4591   -0.6960 H         1 <0>         0.1378
     58 H24        -3.5450  -13.8677   -1.5866 H         1 <0>         0.1369
     59 H25        -3.9507  -12.2502   -2.2089 H         1 <0>         0.1381
     60 H26        -1.5203  -12.6764   -2.3987 H         1 <0>         0.1254
     61 H27        -1.4323  -12.9837   -0.6473 H         1 <0>         0.0623
     62 H28        -5.9649  -12.2761   -0.8933 H         1 <0>         0.1233
     63 H29        -5.5382  -13.8863   -0.2660 H         1 <0>         0.1247
     64 H30        -5.8739  -12.5517    0.8628 H         1 <0>         0.1243
     65 H31        -3.5347  -12.9391    0.6143 H         1 <0>         0.4223
@<TRIPOS>BOND
     1    1    2 1
     2    1   35 1
     3    1   36 1
     4    1   37 1
     5    2    7 ar
     6    2    3 ar
     7    3    4 ar
     8    3   38 1
     9    4    5 ar
    10    4   39 1
    11    5    6 ar
    12    5   18 1
    13    6    7 ar
    14    6   40 1
    15    7    8 1
    16    8   17 ar
    17    8    9 ar
    18    9   10 ar
    19    9   41 1
    20   10   11 ar
    21   10   42 1
    22   11   16 ar
    23   11   12 ar
    24   12   13 ar
    25   12   43 1
    26   13   14 ar
    27   13   44 1
    28   14   15 ar
    29   15   16 ar
    30   15   45 1
    31   16   17 ar
    32   17   46 1
    33   18   19 am
    34   18   47 1
    35   19   20 2
    36   19   21 1
    37   21   26 ar
    38   21   22 ar
    39   22   23 ar
    40   22   48 1
    41   23   24 ar
    42   23   49 1
    43   24   25 ar
    44   24   27 1
    45   25   26 ar
    46   25   50 1
    47   26   51 1
    48   27   28 1
    49   27   52 1
    50   27   53 1
    51   28   33 1
    52   28   29 1
    53   29   30 1
    54   29   54 1
    55   29   55 1
    56   30   31 1
    57   30   56 1
    58   30   57 1
    59   31   32 1
    60   31   34 1
    61   31   65 1
    62   32   33 1
    63   32   58 1
    64   32   59 1
    65   33   60 1
    66   33   61 1
    67   34   62 1
    68   34   63 1
    69   34   64 1
@<TRIPOS>MOLECULE
CHEMBL521887__1
   65    69     0     0     0
SMALL
USER_CHARGES

@<TRIPOS>ATOM
      1 C1          0.0022    1.5025    0.0564 C.3       1 <0>        -0.1220
      2 C2          0.0191   -0.0042    0.0305 C.ar      1 <0>        -0.0736
      3 C3         -0.5713   -0.7188    1.0539 C.ar      1 <0>        -0.0987
      4 C4         -0.5587   -2.1003    1.0343 C.ar      1 <0>        -0.1314
      5 C5          0.0484   -2.7786   -0.0160 C.ar      1 <0>         0.1268
      6 C6          0.6435   -2.0684   -1.0475 C.ar      1 <0>        -0.0988
      7 C7          0.6257   -0.6760   -1.0295 C.ar      1 <0>        -0.0330
      8 C8          1.2551    0.0903   -2.1330 C.ar      1 <0>        -0.0452
      9 C9          0.5389    1.1236   -2.7585 C.ar      1 <0>        -0.0824
     10 C10         1.0912    1.8417   -3.7719 C.ar      1 <0>        -0.1092
     11 C11         2.3949    1.5512   -4.2027 C.ar      1 <0>        -0.0213
     12 C12         3.0117    2.2648   -5.2463 C.ar      1 <0>        -0.1546
     13 C13         4.2799    1.9267   -5.6101 C.ar      1 <0>         0.0791
     14 N1          4.9436    0.9482   -5.0100 N.ar      1 <0>        -0.4862
     15 C14         4.4324    0.2404   -4.0302 C.ar      1 <0>         0.1470
     16 C15         3.1294    0.5091   -3.5780 C.ar      1 <0>        -0.1114
     17 C16         2.5432   -0.2164   -2.5314 C.ar      1 <0>        -0.0703
     18 N2          0.0595   -4.1771   -0.0321 N.am      1 <0>        -0.6623
     19 C17        -0.0391   -4.8384   -1.2024 C.2       1 <0>         0.5486
     20 O1         -0.0529   -4.2215   -2.2498 O.2       1 <0>        -0.4999
     21 C18        -0.1305   -6.3137   -1.2123 C.ar      1 <0>        -0.0951
     22 C19        -0.1206   -7.0247   -0.0111 C.ar      1 <0>        -0.0834
     23 C20        -0.2062   -8.4015   -0.0274 C.ar      1 <0>        -0.1008
     24 C21        -0.3011   -9.0776   -1.2309 C.ar      1 <0>        -0.1370
     25 C22        -0.3109   -8.3789   -2.4251 C.ar      1 <0>        -0.0963
     26 C23        -0.2327   -7.0016   -2.4226 C.ar      1 <0>        -0.0532
     27 C24        -0.3937  -10.5817   -1.2410 C.3       1 <0>         0.0421
     28 N3         -1.8048  -10.9858   -1.1829 N.4       1 <0>        -0.3857
     29 C25        -2.3809  -10.5680    0.1021 C.3       1 <0>        -0.0077
     30 C26        -3.8559  -10.9721    0.1554 C.3       1 <0>         0.0255
     31 N4         -3.9676  -12.4293   -0.0005 N.3       1 <0>        -0.5431
     32 C27        -3.3725  -12.8654   -1.2716 C.3       1 <0>         0.0239
     33 C28        -1.9015  -12.4457   -1.3132 C.3       1 <0>        -0.0024
     34 C29        -5.3671  -12.8639    0.1021 C.3       1 <0>         0.0192
     35 H1         -0.8941    1.8645   -0.4472 H         1 <0>         0.0750
     36 H2          0.0029    1.8481    1.0902 H         1 <0>         0.0707
     37 H3          0.8857    1.8846   -0.4550 H         1 <0>         0.0725
     38 H4         -1.0440   -0.1963    1.8724 H         1 <0>         0.1332
     39 H5         -1.0216   -2.6546    1.8374 H         1 <0>         0.1275
     40 H6          1.1162   -2.5935   -1.8644 H         1 <0>         0.1417
     41 H7         -0.4646    1.3507   -2.4302 H         1 <0>         0.1306
     42 H8          0.5284    2.6332   -4.2442 H         1 <0>         0.1356
     43 H9          2.4895    3.0652   -5.7496 H         1 <0>         0.1404
     44 H10         4.7586    2.4711   -6.4107 H         1 <0>         0.1556
     45 H11         5.0121   -0.5475   -3.5724 H         1 <0>         0.1630
     46 H12         3.0907   -1.0095   -2.0439 H         1 <0>         0.1332
     47 H13         0.1382   -4.6712    0.7989 H         1 <0>         0.4101
     48 H14        -0.0458   -6.4982    0.9289 H         1 <0>         0.1398
     49 H15        -0.1986   -8.9528    0.9012 H         1 <0>         0.1410
     50 H16        -0.3846   -8.9127   -3.3610 H         1 <0>         0.1414
     51 H17        -0.2454   -6.4571   -3.3552 H         1 <0>         0.1513
     52 H18         0.0573  -10.9673   -2.1553 H         1 <0>         0.1415
     53 H19         0.1354  -10.9841   -0.3771 H         1 <0>         0.1406
     54 H20        -1.8419  -11.0521    0.9165 H         1 <0>         0.1387
     55 H21        -2.2968   -9.4860    0.2033 H         1 <0>         0.1347
     56 H22        -4.2798  -10.6754    1.1148 H         1 <0>         0.1236
     57 H23        -4.3979  -10.4775   -0.6506 H         1 <0>         0.0600
     58 H24        -3.4437  -13.9500   -1.3533 H         1 <0>         0.1250
     59 H25        -3.9065  -12.4019   -2.1011 H         1 <0>         0.0606
     60 H26        -1.4619  -12.7557   -2.2612 H         1 <0>         0.1374
     61 H27        -1.3650  -12.9201   -0.4916 H         1 <0>         0.1394
     62 H28        -5.9552  -12.3827   -0.6793 H         1 <0>         0.0396
     63 H29        -5.4211  -13.9461   -0.0168 H         1 <0>         0.0844
     64 H30        -5.7634  -12.5855    1.0786 H         1 <0>         0.0845
     65 H31        -2.3115  -10.5467   -1.9369 H         1 <0>         0.4206
@<TRIPOS>BOND
     1    1    2 1
     2    1   35 1
     3    1   36 1
     4    1   37 1
     5    2    7 ar
     6    2    3 ar
     7    3    4 ar
     8    3   38 1
     9    4    5 ar
    10    4   39 1
    11    5    6 ar
    12    5   18 1
    13    6    7 ar
    14    6   40 1
    15    7    8 1
    16    8   17 ar
    17    8    9 ar
    18    9   10 ar
    19    9   41 1
    20   10   11 ar
    21   10   42 1
    22   11   16 ar
    23   11   12 ar
    24   12   13 ar
    25   12   43 1
    26   13   14 ar
    27   13   44 1
    28   14   15 ar
    29   15   16 ar
    30   15   45 1
    31   16   17 ar
    32   17   46 1
    33   18   19 am
    34   18   47 1
    35   19   20 2
    36   19   21 1
    37   21   26 ar
    38   21   22 ar
    39   22   23 ar
    40   22   48 1
    41   23   24 ar
    42   23   49 1
    43   24   25 ar
    44   24   27 1
    45   25   26 ar
    46   25   50 1
    47   26   51 1
    48   27   28 1
    49   27   52 1
    50   27   53 1
    51   28   33 1
    52   28   29 1
    53   28   65 1
    54   29   30 1
    55   29   54 1
    56   29   55 1
    57   30   31 1
    58   30   56 1
    59   30   57 1
    60   31   32 1
    61   31   34 1
    62   32   33 1
    63   32   58 1
    64   32   59 1
    65   33   60 1
    66   33   61 1
    67   34   62 1
    68   34   63 1
    69   34   64 1
@<TRIPOS>MOLECULE
CHEMBL213356
   63    68     0     0     0
SMALL
USER_CHARGES

@<TRIPOS>ATOM
      1 C1          0.6533   -1.6089   -3.1976 C.3       1 <0>        -0.0469
      2 N1          0.4348   -1.7101   -1.7485 N.4       1 <0>        -0.3838
      3 C2          1.2236   -2.8270   -1.2132 C.3       1 <0>        -0.0234
      4 C3          1.0867   -2.8626    0.3125 C.3       1 <0>         0.0999
      5 N2         -0.3439   -2.9123    0.6514 N.pl3     1 <0>        -0.6458
      6 C4         -1.2389   -1.9255    0.0273 C.3       1 <0>         0.1006
      7 C5         -0.9923   -1.9341   -1.4849 C.3       1 <0>        -0.0229
      8 C6         -0.8394   -3.8709    1.5425 C.ar      1 <0>         0.1778
      9 C7          0.0005   -4.8612    2.0348 C.ar      1 <0>        -0.1634
     10 C8         -0.4884   -5.8070    2.9139 C.ar      1 <0>        -0.0623
     11 C9         -1.8202   -5.7682    3.3056 C.ar      1 <0>         0.1362
     12 C10        -2.6602   -4.7781    2.8130 C.ar      1 <0>        -0.1002
     13 C11        -2.1697   -3.8284    1.9390 C.ar      1 <0>        -0.1625
     14 N3         -2.3162   -6.7279    4.1971 N.pl3     1 <0>        -0.6354
     15 C12        -1.5040   -7.2239    5.2030 C.ar      1 <0>         0.6004
     16 N4         -0.3032   -6.6900    5.3762 N.ar      1 <0>        -0.5853
     17 C13         0.5120   -7.1287    6.3252 C.ar      1 <0>         0.2300
     18 C14         0.0787   -8.1692    7.1424 C.ar      1 <0>        -0.2526
     19 C15        -1.2035   -8.7126    6.9298 C.ar      1 <0>         0.5127
     20 N5         -1.9579   -8.2131    5.9624 N.ar      1 <0>        -0.6031
     21 N6         -1.6506   -9.7475    7.7329 N.pl3     1 <0>        -0.4141
     22 C16        -2.9317  -10.4723    7.7086 C.3       1 <0>         0.1361
     23 C17        -2.8159  -11.5010    8.8454 C.3       1 <0>        -0.1616
     24 C18        -1.4450  -11.2609    9.4270 C.2       1 <0>         0.5269
     25 O1         -0.9596  -11.8728   10.3550 O.2       1 <0>        -0.4791
     26 N7         -0.8423  -10.2576    8.7517 N.am      1 <0>        -0.3619
     27 C19         0.4381   -9.7234    8.9742 C.2       1 <0>         0.1467
     28 C20         0.9174   -8.7158    8.2167 C.2       1 <0>        -0.1008
     29 C21         1.2758  -10.2773   10.0570 C.ar      1 <0>        -0.0298
     30 C22         0.8882  -10.1266   11.3897 C.ar      1 <0>        -0.0827
     31 C23         1.6782  -10.6488   12.3990 C.ar      1 <0>         0.1158
     32 C24         2.8530  -11.3201   12.0863 C.ar      1 <0>        -0.1160
     33 C25         3.2395  -11.4710   10.7675 C.ar      1 <0>        -0.0946
     34 C26         2.4566  -10.9593    9.7514 C.ar      1 <0>        -0.0199
     35 Cl1         2.9423  -11.1574    8.0965 Cl        1 <0>        -0.0569
     36 O2          1.3041  -10.5041   13.6978 O.3       1 <0>        -0.4945
     37 H1          0.0745   -0.7751   -3.5949 H         1 <0>         0.1247
     38 H2          1.7123   -1.4425   -3.3946 H         1 <0>         0.1248
     39 H3          0.3352   -2.5339   -3.6785 H         1 <0>         0.1214
     40 H4          0.8579   -3.7641   -1.6329 H         1 <0>         0.1321
     41 H5          2.2716   -2.6930   -1.4811 H         1 <0>         0.1402
     42 H6          1.5870   -3.7481    0.7046 H         1 <0>         0.1269
     43 H7          1.5338   -1.9657    0.7414 H         1 <0>         0.0868
     44 H8         -2.2761   -2.1915    0.2308 H         1 <0>         0.1258
     45 H9         -1.0267   -0.9340    0.4274 H         1 <0>         0.0863
     46 H10        -1.5770   -1.1423   -1.9531 H         1 <0>         0.1400
     47 H11        -1.2908   -2.8983   -1.8964 H         1 <0>         0.1321
     48 H12         1.0361   -4.8919    1.7296 H         1 <0>         0.1249
     49 H13         0.1648   -6.5772    3.2968 H         1 <0>         0.1400
     50 H14        -3.6960   -4.7482    3.1174 H         1 <0>         0.1304
     51 H15        -2.8219   -3.0556    1.5597 H         1 <0>         0.1260
     52 H16        -3.2287   -7.0451    4.1099 H         1 <0>         0.4244
     53 H17         1.4893   -6.6896    6.4608 H         1 <0>         0.1792
     54 H18        -3.7591   -9.7884    7.8974 H         1 <0>         0.0983
     55 H19        -3.0650  -10.9768    6.7516 H         1 <0>         0.0978
     56 H20        -3.5850  -11.3258    9.5977 H         1 <0>         0.1283
     57 H21        -2.8906  -12.5145    8.4515 H         1 <0>         0.1282
     58 H22         1.9038   -8.3154    8.3987 H         1 <0>         0.1544
     59 H23        -0.0251   -9.6038   11.6323 H         1 <0>         0.1333
     60 H24         3.4674  -11.7257   12.8765 H         1 <0>         0.1435
     61 H25         4.1544  -11.9938   10.5310 H         1 <0>         0.1445
     62 H26         0.7490  -11.2230   14.0296 H         1 <0>         0.3977
     63 H27         0.7268   -0.8522   -1.3048 H         1 <0>         0.4246
@<TRIPOS>BOND
     1    1    2 1
     2    1   37 1
     3    1   38 1
     4    1   39 1
     5    2    7 1
     6    2    3 1
     7    2   63 1
     8    3    4 1
     9    3   40 1
    10    3   41 1
    11    4    5 1
    12    4   42 1
    13    4   43 1
    14    5    6 1
    15    5    8 1
    16    6    7 1
    17    6   44 1
    18    6   45 1
    19    7   46 1
    20    7   47 1
    21    8   13 ar
    22    8    9 ar
    23    9   10 ar
    24    9   48 1
    25   10   11 ar
    26   10   49 1
    27   11   12 ar
    28   11   14 1
    29   12   13 ar
    30   12   50 1
    31   13   51 1
    32   14   15 1
    33   14   52 1
    34   15   20 ar
    35   15   16 ar
    36   16   17 ar
    37   17   18 ar
    38   17   53 1
    39   18   28 1
    40   18   19 ar
    41   19   20 ar
    42   19   21 1
    43   21   26 1
    44   21   22 1
    45   22   23 1
    46   22   54 1
    47   22   55 1
    48   23   24 1
    49   23   56 1
    50   23   57 1
    51   24   25 2
    52   24   26 am
    53   26   27 1
    54   27   28 2
    55   27   29 1
    56   28   58 1
    57   29   34 ar
    58   29   30 ar
    59   30   31 ar
    60   30   59 1
    61   31   32 ar
    62   31   36 1
    63   32   33 ar
    64   32   60 1
    65   33   34 ar
    66   33   61 1
    67   34   35 1
    68   36   62 1
@<TRIPOS>MOLECULE
CHEMBL213356__1
   62    67     0     0     0
SMALL
USER_CHARGES

@<TRIPOS>ATOM
      1 C1          0.8238   -1.4726   -3.2748 C.3       1 <0>         0.0243
      2 N1          0.5395   -1.6862   -1.8494 N.3       1 <0>        -0.5427
      3 C2          1.3504   -2.7860   -1.3100 C.3       1 <0>         0.0382
      4 C3          1.1609   -2.8585    0.2089 C.3       1 <0>         0.1260
      5 N2         -0.2787   -2.9482    0.4964 N.pl3     1 <0>        -0.6320
      6 C4         -1.1748   -1.9594   -0.1221 C.3       1 <0>         0.1266
      7 C5         -0.8933   -1.9223   -1.6280 C.3       1 <0>         0.0386
      8 C6         -0.7826   -3.9482    1.3358 C.ar      1 <0>         0.2099
      9 C7          0.0616   -4.9388    1.8202 C.ar      1 <0>        -0.1812
     10 C8         -0.4356   -5.9254    2.6484 C.ar      1 <0>        -0.0551
     11 C9         -1.7799   -5.9274    2.9966 C.ar      1 <0>         0.0993
     12 C10        -2.6242   -4.9370    2.5119 C.ar      1 <0>        -0.0920
     13 C11        -2.1257   -3.9466    1.6891 C.ar      1 <0>        -0.1811
     14 N3         -2.2844   -6.9285    3.8364 N.pl3     1 <0>        -0.6284
     15 C12        -1.4950   -7.4443    4.8504 C.ar      1 <0>         0.6051
     16 N4         -0.3121   -6.8932    5.0824 N.ar      1 <0>        -0.5801
     17 C13         0.4809   -7.3498    6.0418 C.ar      1 <0>         0.2360
     18 C14         0.0433   -8.4276    6.8067 C.ar      1 <0>        -0.2673
     19 C15        -1.2195   -8.9884    6.5322 C.ar      1 <0>         0.5130
     20 N5         -1.9524   -8.4693    5.5587 N.ar      1 <0>        -0.6075
     21 N6         -1.6706  -10.0605    7.2827 N.pl3     1 <0>        -0.4170
     22 C16        -2.9346  -10.8093    7.1900 C.3       1 <0>         0.1369
     23 C17        -2.8342  -11.8759    8.2928 C.3       1 <0>        -0.1611
     24 C18        -1.4884  -11.6298    8.9277 C.2       1 <0>         0.5256
     25 O1         -1.0206  -12.2652    9.8491 O.2       1 <0>        -0.4862
     26 N7         -0.8853  -10.5909    8.3090 N.am      1 <0>        -0.3581
     27 C19         0.3756  -10.0398    8.5929 C.2       1 <0>         0.1315
     28 C20         0.8579   -8.9960    7.8881 C.2       1 <0>        -0.0870
     29 C21         1.1891  -10.6157    9.6826 C.ar      1 <0>        -0.0235
     30 C22         0.7552  -10.5213   11.0062 C.ar      1 <0>        -0.0826
     31 C23         1.5228  -11.0639   12.0220 C.ar      1 <0>         0.1136
     32 C24         2.7211  -11.6998   11.7249 C.ar      1 <0>        -0.1185
     33 C25         3.1534  -11.7950   10.4151 C.ar      1 <0>        -0.0956
     34 C26         2.3934  -11.2626    9.3924 C.ar      1 <0>        -0.0208
     35 Cl1         2.9368  -11.3908    7.7486 Cl        1 <0>        -0.0552
     36 O2          1.1036  -10.9738   13.3119 O.3       1 <0>        -0.4950
     37 H1          0.2677   -0.6051   -3.6301 H         1 <0>         0.0705
     38 H2          1.8915   -1.3003   -3.4105 H         1 <0>         0.0702
     39 H3          0.5231   -2.3539   -3.8413 H         1 <0>         0.0256
     40 H4          1.0341   -3.7264   -1.7613 H         1 <0>         0.0382
     41 H5          2.4015   -2.6084   -1.5373 H         1 <0>         0.0855
     42 H6          1.6680   -3.7408    0.5994 H         1 <0>         0.0874
     43 H7          1.5717   -1.9615    0.6724 H         1 <0>         0.0699
     44 H8         -2.2120   -2.2473    0.0495 H         1 <0>         0.0862
     45 H9         -0.9885   -0.9760    0.3095 H         1 <0>         0.0695
     46 H10        -1.4695   -1.1183   -2.0860 H         1 <0>         0.0854
     47 H11        -1.1784   -2.8747   -2.0749 H         1 <0>         0.0382
     48 H12         1.1069   -4.9377    1.5488 H         1 <0>         0.1245
     49 H13         0.2209   -6.6958    3.0250 H         1 <0>         0.1327
     50 H14        -3.6698   -4.9388    2.7825 H         1 <0>         0.1231
     51 H15        -2.7813   -3.1737    1.3161 H         1 <0>         0.1254
     52 H16        -3.1867   -7.2604    3.7076 H         1 <0>         0.4210
     53 H17         1.4438   -6.8965    6.2255 H         1 <0>         0.1780
     54 H18        -3.7820  -10.1493    7.3754 H         1 <0>         0.0968
     55 H19        -3.0260  -11.2813    6.2117 H         1 <0>         0.0965
     56 H20        -3.6309  -11.7435    9.0247 H         1 <0>         0.1261
     57 H21        -2.8746  -12.8758    7.8607 H         1 <0>         0.1261
     58 H22         1.8292   -8.5829    8.1169 H         1 <0>         0.1529
     59 H23        -0.1764  -10.0259   11.2367 H         1 <0>         0.1329
     60 H24         3.3178  -12.1215   12.5202 H         1 <0>         0.1417
     61 H25         4.0864  -12.2906   10.1908 H         1 <0>         0.1433
     62 H26         0.5533  -11.7152   13.5993 H         1 <0>         0.3961
@<TRIPOS>BOND
     1    1    2 1
     2    1   37 1
     3    1   38 1
     4    1   39 1
     5    2    7 1
     6    2    3 1
     7    3    4 1
     8    3   40 1
     9    3   41 1
    10    4    5 1
    11    4   42 1
    12    4   43 1
    13    5    6 1
    14    5    8 1
    15    6    7 1
    16    6   44 1
    17    6   45 1
    18    7   46 1
    19    7   47 1
    20    8   13 ar
    21    8    9 ar
    22    9   10 ar
    23    9   48 1
    24   10   11 ar
    25   10   49 1
    26   11   12 ar
    27   11   14 1
    28   12   13 ar
    29   12   50 1
    30   13   51 1
    31   14   15 1
    32   14   52 1
    33   15   20 ar
    34   15   16 ar
    35   16   17 ar
    36   17   18 ar
    37   17   53 1
    38   18   28 1
    39   18   19 ar
    40   19   20 ar
    41   19   21 1
    42   21   26 1
    43   21   22 1
    44   22   23 1
    45   22   54 1
    46   22   55 1
    47   23   24 1
    48   23   56 1
    49   23   57 1
    50   24   25 2
    51   24   26 am
    52   26   27 1
    53   27   28 2
    54   27   29 1
    55   28   58 1
    56   29   34 ar
    57   29   30 ar
    58   30   31 ar
    59   30   59 1
    60   31   32 ar
    61   31   36 1
    62   32   33 ar
    63   32   60 1
    64   33   34 ar
    65   33   61 1
    66   34   35 1
    67   36   62 1
@<TRIPOS>MOLECULE
CHEMBL292930
   73    77     0     0     0
SMALL
USER_CHARGES

@<TRIPOS>ATOM
      1 C1          0.7445    0.2189    0.4763 C.3       1 <0>         0.0810
      2 N1         -0.1157   -0.9656    0.4190 N.pl3     1 <0>        -1.1201
      3 S1         -1.7144   -0.8092    0.0164 S.o2      1 <0>         2.7002
      4 O1         -2.2645   -2.1194    0.0212 O.2       1 <0>        -0.9587
      5 O2         -2.2356    0.2388    0.8222 O.2       1 <0>        -0.9520
      6 C2         -1.7787   -0.2421   -1.6506 C.ar      1 <0>        -0.6985
      7 C3         -1.7843    1.1168   -1.9192 C.ar      1 <0>         0.0111
      8 C4         -1.8344    1.5765   -3.2194 C.ar      1 <0>        -0.1532
      9 C5         -1.8804    0.6748   -4.2770 C.ar      1 <0>         0.1963
     10 C6         -1.8746   -0.6994   -4.0013 C.ar      1 <0>        -0.1135
     11 C7         -1.8177   -1.1525   -2.6871 C.ar      1 <0>         0.0335
     12 C8         -1.9294   -1.3874   -5.3102 C.2       1 <0>        -0.2114
     13 C9         -1.9445   -2.7492   -5.5439 C.2       1 <0>         0.0891
     14 C10        -2.1567   -3.2383   -6.8494 C.2       1 <0>        -0.0225
     15 C11        -1.6000   -4.3860   -7.3969 C.2       1 <0>        -0.0808
     16 C12        -2.0768   -4.4864   -8.6990 C.2       1 <0>        -0.1682
     17 C13        -2.8992   -3.4265   -8.9321 C.2       1 <0>         0.0738
     18 N2         -2.9605   -2.6668   -7.8145 N.pl3     1 <0>        -0.5033
     19 H1         -3.4808   -1.8549   -7.7097 H         1 <0>         0.4190
     20 C14        -3.6089   -3.1855  -10.2434 C.3       1 <0>        -0.0584
     21 C15        -2.9368   -4.0424  -11.3225 C.3       1 <0>        -0.1131
     22 C16        -2.8178   -5.4867  -10.8290 C.3       1 <0>        -0.1202
     23 C17        -1.7687   -5.5603   -9.7128 C.3       1 <0>        -0.0461
     24 C18        -0.6578   -5.3412   -6.7106 C.3       1 <0>        -0.0532
     25 C19        -1.4635   -6.4352   -6.0071 C.3       1 <0>        -0.1094
     26 C20        -0.5069   -7.4049   -5.3104 C.3       1 <0>         0.0535
     27 N3         -1.2804   -8.4554   -4.6350 N.3       1 <0>        -0.5401
     28 C21        -2.0718   -7.8980   -3.5290 C.3       1 <0>         0.0250
     29 C22        -2.9064   -9.0110   -2.8915 C.3       1 <0>        -0.0058
     30 N4         -2.0154  -10.0679   -2.3947 N.4       1 <0>        -0.3606
     31 C23        -1.2497  -10.6315   -3.5144 C.3       1 <0>        -0.0061
     32 C24        -0.4014   -9.5320   -4.1571 C.3       1 <0>         0.0324
     33 C25        -2.8158  -11.1276   -1.7667 C.3       1 <0>        -0.0827
     34 C26        -1.8982  -12.1511   -1.1492 C.2       1 <0>         0.4872
     35 O3         -0.6894  -12.0108   -1.2252 O.co2     1 <0>        -0.6738
     36 O4         -2.3645  -13.1194   -0.5735 O.co2     1 <0>        -0.6388
     37 C27        -1.9651   -0.3097   -6.3070 C.2       1 <0>         0.5578
     38 O5         -2.0135   -0.4539   -7.5158 O.2       1 <0>        -0.5026
     39 N5         -1.9345    0.8636   -5.6524 N.am      1 <0>        -0.6509
     40 H2          1.7550   -0.0791    0.7558 H         1 <0>         0.0854
     41 H3          0.7651    0.7006   -0.5013 H         1 <0>         0.0605
     42 H4          0.3534    0.9165    1.2169 H         1 <0>         0.0711
     43 H5          0.2511   -1.8414    0.6170 H         1 <0>         0.4202
     44 H6         -1.7495    1.8233   -1.1031 H         1 <0>         0.1505
     45 H7         -1.8382    2.6385   -3.4158 H         1 <0>         0.1403
     46 H8         -1.8086   -2.2122   -2.4788 H         1 <0>         0.1444
     47 H9         -1.7937   -3.4391   -4.7267 H         1 <0>         0.1516
     48 H10        -4.6575   -3.4682  -10.1505 H         1 <0>         0.0803
     49 H11        -3.5348   -2.1318  -10.5125 H         1 <0>         0.0772
     50 H12        -3.5372   -4.0176  -12.2319 H         1 <0>         0.0719
     51 H13        -1.9429   -3.6474  -11.5329 H         1 <0>         0.0681
     52 H14        -3.7817   -5.8199  -10.4443 H         1 <0>         0.0644
     53 H15        -2.5146   -6.1293  -11.6556 H         1 <0>         0.0680
     54 H16        -0.7755   -5.3964  -10.1309 H         1 <0>         0.0686
     55 H17        -1.8094   -6.5391   -9.2347 H         1 <0>         0.0710
     56 H18         0.0023   -5.7946   -7.4500 H         1 <0>         0.0782
     57 H19        -0.0624   -4.7991   -5.9759 H         1 <0>         0.0682
     58 H20        -2.1236   -5.9818   -5.2677 H         1 <0>         0.0624
     59 H21        -2.0589   -6.9772   -6.7419 H         1 <0>         0.0781
     60 H22         0.1532   -7.8583   -6.0498 H         1 <0>         0.0861
     61 H23         0.0885   -6.8629   -4.5757 H         1 <0>         0.0436
     62 H24        -1.4027   -7.4717   -2.7817 H         1 <0>         0.0575
     63 H25        -2.7336   -7.1206   -3.9110 H         1 <0>         0.1173
     64 H26        -3.4834   -8.6026   -2.0618 H         1 <0>         0.1267
     65 H27        -3.5851   -9.4279   -3.6356 H         1 <0>         0.1289
     66 H28        -0.5986  -11.4245   -3.1465 H         1 <0>         0.1614
     67 H29        -1.9369  -11.0401   -4.2553 H         1 <0>         0.1196
     68 H30         0.1555   -9.9467   -4.9973 H         1 <0>         0.1156
     69 H31         0.2953   -9.1325   -3.4202 H         1 <0>         0.0582
     70 H32        -3.4496  -10.6941   -0.9931 H         1 <0>         0.1240
     71 H33        -3.4397  -11.6071   -2.5210 H         1 <0>         0.1235
     72 H34        -1.9488    1.7316   -6.0851 H         1 <0>         0.4217
     73 H35        -1.3796   -9.6793   -1.7145 H         1 <0>         0.4202
@<TRIPOS>BOND
     1    1    2 1
     2    1   40 1
     3    1   41 1
     4    1   42 1
     5    2    3 1
     6    2   43 1
     7    3    4 2
     8    3    5 2
     9    3    6 1
    10    6   11 ar
    11    6    7 ar
    12    7    8 ar
    13    7   44 1
    14    8    9 ar
    15    8   45 1
    16    9   39 1
    17    9   10 ar
    18   10   11 ar
    19   10   12 1
    20   11   46 1
    21   12   13 2
    22   12   37 1
    23   13   14 1
    24   13   47 1
    25   14   18 1
    26   14   15 2
    27   15   16 1
    28   15   24 1
    29   16   23 1
    30   16   17 2
    31   17   18 1
    32   17   20 1
    33   18   19 1
    34   20   21 1
    35   20   48 1
    36   20   49 1
    37   21   22 1
    38   21   50 1
    39   21   51 1
    40   22   23 1
    41   22   52 1
    42   22   53 1
    43   23   54 1
    44   23   55 1
    45   24   25 1
    46   24   56 1
    47   24   57 1
    48   25   26 1
    49   25   58 1
    50   25   59 1
    51   26   27 1
    52   26   60 1
    53   26   61 1
    54   27   32 1
    55   27   28 1
    56   28   29 1
    57   28   62 1
    58   28   63 1
    59   29   30 1
    60   29   64 1
    61   29   65 1
    62   30   31 1
    63   30   33 1
    64   30   73 1
    65   31   32 1
    66   31   66 1
    67   31   67 1
    68   32   68 1
    69   32   69 1
    70   33   34 1
    71   33   70 1
    72   33   71 1
    73   34   35 2
    74   34   36 1
    75   37   38 2
    76   37   39 am
    77   39   72 1
@<TRIPOS>MOLECULE
CHEMBL553
   52    54     0     0     0
SMALL
USER_CHARGES

@<TRIPOS>ATOM
      1 C1          1.3190    1.4185    0.8998 C.3       1 <0>         0.0308
      2 O1          1.1221    0.0121    0.7412 O.3       1 <0>        -0.3842
      3 C2          1.6336   -0.7719    1.8209 C.3       1 <0>         0.0626
      4 C3          1.3686   -2.2534    1.5456 C.3       1 <0>         0.0560
      5 O2          2.1105   -2.6643    0.3955 O.3       1 <0>        -0.2877
      6 C4          1.9861   -3.9631    0.0122 C.ar      1 <0>         0.1163
      7 C5          1.1727   -4.8014    0.7206 C.ar      1 <0>        -0.1508
      8 C6          1.0439   -6.1386    0.3269 C.ar      1 <0>        -0.1822
      9 C7          1.7562   -6.6146   -0.8018 C.ar      1 <0>         0.2018
     10 C8          2.5842   -5.7378   -1.5132 C.ar      1 <0>        -0.1867
     11 C9          2.6894   -4.4253   -1.1088 C.ar      1 <0>         0.1692
     12 O3          3.4878   -3.5711   -1.8004 O.3       1 <0>        -0.2847
     13 C10         4.1782   -4.1019   -2.9333 C.3       1 <0>         0.0544
     14 C11         5.0210   -3.0002   -3.5791 C.3       1 <0>         0.0626
     15 O4          6.0448   -2.5894   -2.6708 O.3       1 <0>        -0.3848
     16 C12         6.8933   -1.5581   -3.1792 C.3       1 <0>         0.0309
     17 N1          1.6146   -7.9009   -1.1583 N.ar      1 <0>        -0.5426
     18 C13         0.8310   -8.6986   -0.4725 C.ar      1 <0>         0.3422
     19 N2          0.1465   -8.2987    0.5874 N.ar      1 <0>        -0.5807
     20 C14         0.2146   -7.0483    1.0253 C.ar      1 <0>         0.4641
     21 N3         -0.5043   -6.6451    2.1328 N.pl3     1 <0>        -0.6417
     22 C15        -1.2223   -7.5837    2.8797 C.ar      1 <0>         0.1534
     23 C16        -2.4417   -7.2339    3.4483 C.ar      1 <0>        -0.1365
     24 C17        -3.1548   -8.1581    4.1879 C.ar      1 <0>        -0.0976
     25 C18        -2.6612   -9.4349    4.3666 C.ar      1 <0>        -0.1098
     26 C19        -1.4382   -9.7960    3.7995 C.ar      1 <0>         0.0290
     27 C20        -0.7210   -8.8652    3.0488 C.ar      1 <0>        -0.0846
     28 C21        -0.9239  -11.1197    3.9839 C.1       1 <0>        -0.1518
     29 C22        -0.5023  -12.2049    4.1351 C.1       1 <0>        -0.1689
     30 H1          2.3858    1.6300    0.9737 H         1 <0>         0.0438
     31 H2          0.9034    1.9430    0.0394 H         1 <0>         0.0882
     32 H3          0.8182    1.7554    1.8074 H         1 <0>         0.0421
     33 H4          2.7069   -0.6059    1.9138 H         1 <0>         0.0642
     34 H5          1.1392   -0.4804    2.7476 H         1 <0>         0.0738
     35 H6          1.6782   -2.8442    2.4078 H         1 <0>         0.0797
     36 H7          0.3045   -2.4047    1.3647 H         1 <0>         0.0731
     37 H8          0.6320   -4.4344    1.5804 H         1 <0>         0.1376
     38 H9          3.1329   -6.0870   -2.3754 H         1 <0>         0.1546
     39 H10         4.8282   -4.9164   -2.6138 H         1 <0>         0.0783
     40 H11         3.4545   -4.4770   -3.6569 H         1 <0>         0.0849
     41 H12         5.4773   -3.3804   -4.4931 H         1 <0>         0.0752
     42 H13         4.3841   -2.1485   -3.8181 H         1 <0>         0.0638
     43 H14         6.2953   -0.6764   -3.4098 H         1 <0>         0.0434
     44 H15         7.6433   -1.3027   -2.4306 H         1 <0>         0.0879
     45 H16         7.3884   -1.9084   -4.0848 H         1 <0>         0.0424
     46 H17         0.7401   -9.7278   -0.7869 H         1 <0>         0.1966
     47 H18        -0.5113   -5.7106    2.3927 H         1 <0>         0.4197
     48 H19        -2.8329   -6.2365    3.3119 H         1 <0>         0.1281
     49 H20        -4.1012   -7.8805    4.6278 H         1 <0>         0.1331
     50 H21        -3.2213  -10.1542    4.9456 H         1 <0>         0.1284
     51 H22         0.2239   -9.1405    2.6039 H         1 <0>         0.1386
     52 H23        -0.1252  -13.1754    4.2703 H         1 <0>         0.2249
@<TRIPOS>BOND
     1    1    2 1
     2    1   30 1
     3    1   31 1
     4    1   32 1
     5    2    3 1
     6    3    4 1
     7    3   33 1
     8    3   34 1
     9    4    5 1
    10    4   35 1
    11    4   36 1
    12    5    6 1
    13    6   11 ar
    14    6    7 ar
    15    7    8 ar
    16    7   37 1
    17    8   20 ar
    18    8    9 ar
    19    9   10 ar
    20    9   17 ar
    21   10   11 ar
    22   10   38 1
    23   11   12 1
    24   12   13 1
    25   13   14 1
    26   13   39 1
    27   13   40 1
    28   14   15 1
    29   14   41 1
    30   14   42 1
    31   15   16 1
    32   16   43 1
    33   16   44 1
    34   16   45 1
    35   17   18 ar
    36   18   19 ar
    37   18   46 1
    38   19   20 ar
    39   20   21 1
    40   21   22 1
    41   21   47 1
    42   22   27 ar
    43   22   23 ar
    44   23   24 ar
    45   23   48 1
    46   24   25 ar
    47   24   49 1
    48   25   26 ar
    49   25   50 1
    50   26   27 ar
    51   26   28 1
    52   27   51 1
    53   28   29 3
    54   29   52 1
@<TRIPOS>MOLECULE
CHEMBL1076433
   78    83     0     0     0
SMALL
USER_CHARGES

@<TRIPOS>ATOM
      1 C1          5.7050   -0.6687   -0.4561 C.3       1 <0>        -0.1889
      2 C2          5.6615   -2.0036   -1.2024 C.3       1 <0>        -0.0093
      3 N1          4.7655   -1.8880   -2.3608 N.4       1 <0>        -0.3874
      4 C3          3.3917   -1.6560   -1.8955 C.3       1 <0>        -0.0055
      5 C4          2.4610   -1.5168   -3.1022 C.3       1 <0>         0.0278
      6 N2          2.5228   -2.7437   -3.9091 N.3       1 <0>        -0.5306
      7 C5          3.8971   -3.0024   -4.3613 C.3       1 <0>         0.0210
      8 C6          4.8159   -3.1295   -3.1442 C.3       1 <0>        -0.0008
      9 C7          1.5984   -2.6715   -5.0486 C.3       1 <0>         0.0924
     10 C8          1.5050   -4.0242   -5.7061 C.ar      1 <0>        -0.0642
     11 C9          2.2319   -4.2836   -6.8545 C.ar      1 <0>        -0.1094
     12 C10         2.1510   -5.5196   -7.4615 C.ar      1 <0>        -0.0516
     13 C11         1.3339   -6.5108   -6.9148 C.ar      1 <0>        -0.1076
     14 C12         0.6034   -6.2440   -5.7561 C.ar      1 <0>        -0.0775
     15 C13         0.6967   -5.0041   -5.1553 C.ar      1 <0>        -0.0179
     16 Cl1        -0.2063   -4.6712   -3.7104 Cl        1 <0>        -0.0469
     17 C14         1.2426   -7.8372   -7.5608 C.2       1 <0>         0.5577
     18 O1          1.8798   -8.0668   -8.5703 O.2       1 <0>        -0.5058
     19 N3          0.4530   -8.7921   -7.0306 N.am      1 <0>        -0.6608
     20 C15         0.3029  -10.0186   -7.6855 C.ar      1 <0>         0.1591
     21 C16         1.3791  -10.5837   -8.3591 C.ar      1 <0>        -0.1375
     22 C17         1.2318  -11.7951   -9.0063 C.ar      1 <0>        -0.0745
     23 C18         0.0147  -12.4491   -8.9863 C.ar      1 <0>        -0.1332
     24 C19        -1.0654  -11.8894   -8.3151 C.ar      1 <0>         0.1909
     25 C20        -0.9189  -10.6752   -7.6586 C.ar      1 <0>        -0.1718
     26 N4         -2.2966  -12.5513   -8.2958 N.pl3     1 <0>        -0.6335
     27 C21        -3.4239  -11.8983   -7.8414 C.2       1 <0>         0.5479
     28 N5         -3.4807  -10.6308   -7.5185 N.2       1 <0>        -0.5117
     29 C22        -4.7396  -10.3171   -7.1130 C.ar      1 <0>         0.0754
     30 C23        -5.3372   -9.1350   -6.6686 C.ar      1 <0>        -0.0794
     31 C24        -6.6690   -9.1314   -6.3187 C.ar      1 <0>        -0.1114
     32 C25        -7.4221  -10.2929   -6.4036 C.ar      1 <0>        -0.1092
     33 C26        -6.8465  -11.4685   -6.8407 C.ar      1 <0>        -0.0852
     34 C27        -5.5073  -11.4901   -7.1974 C.ar      1 <0>         0.0583
     35 N6         -4.6526  -12.4775   -7.6664 N.pl3     1 <0>        -0.4561
     36 C28        -4.9820  -13.8094   -7.9111 C.ar      1 <0>         0.4201
     37 C29        -4.1756  -14.8346   -7.4311 C.ar      1 <0>        -0.3063
     38 C30        -4.5479  -16.1488   -7.7025 C.ar      1 <0>         0.4652
     39 N7         -5.6551  -16.3739   -8.4068 N.ar      1 <0>        -0.5747
     40 C31        -6.3927  -15.3738   -8.8440 C.ar      1 <0>         0.3751
     41 N8         -6.0762  -14.1178   -8.6030 N.ar      1 <0>        -0.5624
     42 N9         -3.7771  -17.2067   -7.2464 N.pl3     1 <0>        -0.8257
     43 C32        -0.1414  -13.7705   -9.6938 C.3       1 <0>        -0.1146
     44 H1          6.0738    0.1094   -1.1244 H         1 <0>         0.0798
     45 H2          4.7024   -0.4100   -0.1155 H         1 <0>         0.0804
     46 H3          6.3699   -0.7545    0.4034 H         1 <0>         0.1067
     47 H4          6.6641   -2.2624   -1.5430 H         1 <0>         0.1304
     48 H5          5.2927   -2.7817   -0.5340 H         1 <0>         0.1298
     49 H6          3.0687   -2.4976   -1.2828 H         1 <0>         0.1381
     50 H7          3.3582   -0.7415   -1.3034 H         1 <0>         0.1371
     51 H8          1.4391   -1.3595   -2.7571 H         1 <0>         0.1249
     52 H9          2.7756   -0.6669   -3.7080 H         1 <0>         0.0624
     53 H10         3.9229   -3.9290   -4.9347 H         1 <0>         0.1240
     54 H11         4.2353   -2.1771   -4.9878 H         1 <0>         0.0628
     55 H12         5.8383   -3.3073   -3.4778 H         1 <0>         0.1354
     56 H13         4.4856   -3.9635   -2.5250 H         1 <0>         0.1375
     57 H14         0.6118   -2.3693   -4.6974 H         1 <0>         0.1053
     58 H15         1.9668   -1.9417   -5.7695 H         1 <0>         0.0638
     59 H16         2.8637   -3.5163   -7.2769 H         1 <0>         0.1390
     60 H17         2.7185   -5.7200   -8.3583 H         1 <0>         0.1486
     61 H18        -0.0305   -7.0065   -5.3282 H         1 <0>         0.1407
     62 H19        -0.0113   -8.6286   -6.1948 H         1 <0>         0.4099
     63 H20         2.3316  -10.0749   -8.3769 H         1 <0>         0.1372
     64 H21         2.0696  -12.2320   -9.5294 H         1 <0>         0.1323
     65 H22        -1.7555  -10.2405   -7.1318 H         1 <0>         0.1798
     66 H23        -2.3583  -13.4697   -8.6018 H         1 <0>         0.4203
     67 H24        -4.7564   -8.2271   -6.5994 H         1 <0>         0.1306
     68 H25        -7.1305   -8.2173   -5.9753 H         1 <0>         0.1326
     69 H26        -8.4656  -10.2773   -6.1256 H         1 <0>         0.1335
     70 H27        -7.4382  -12.3698   -6.9043 H         1 <0>         0.1248
     71 H28        -3.2832  -14.6177   -6.8629 H         1 <0>         0.1463
     72 H29        -7.2849  -15.5898   -9.4130 H         1 <0>         0.2108
     73 H30        -2.9716  -17.0344   -6.7342 H         1 <0>         0.4153
     74 H31        -4.0431  -18.1192   -7.4396 H         1 <0>         0.4154
     75 H32         0.0995  -14.5814   -9.0063 H         1 <0>         0.0718
     76 H33        -1.1700  -13.8792  -10.0376 H         1 <0>         0.0557
     77 H34         0.5333  -13.8067  -10.5491 H         1 <0>         0.0771
     78 H35         5.0600   -1.1143   -2.9376 H         1 <0>         0.4200
@<TRIPOS>BOND
     1    1    2 1
     2    1   44 1
     3    1   45 1
     4    1   46 1
     5    2    3 1
     6    2   47 1
     7    2   48 1
     8    3    8 1
     9    3    4 1
    10    3   78 1
    11    4    5 1
    12    4   49 1
    13    4   50 1
    14    5    6 1
    15    5   51 1
    16    5   52 1
    17    6    7 1
    18    6    9 1
    19    7    8 1
    20    7   53 1
    21    7   54 1
    22    8   55 1
    23    8   56 1
    24    9   10 1
    25    9   57 1
    26    9   58 1
    27   10   15 ar
    28   10   11 ar
    29   11   12 ar
    30   11   59 1
    31   12   13 ar
    32   12   60 1
    33   13   14 ar
    34   13   17 1
    35   14   15 ar
    36   14   61 1
    37   15   16 1
    38   17   18 2
    39   17   19 am
    40   19   20 1
    41   19   62 1
    42   20   25 ar
    43   20   21 ar
    44   21   22 ar
    45   21   63 1
    46   22   23 ar
    47   22   64 1
    48   23   24 ar
    49   23   43 1
    50   24   25 ar
    51   24   26 1
    52   25   65 1
    53   26   27 1
    54   26   66 1
    55   27   35 1
    56   27   28 2
    57   28   29 1
    58   29   34 ar
    59   29   30 ar
    60   30   31 ar
    61   30   67 1
    62   31   32 ar
    63   31   68 1
    64   32   33 ar
    65   32   69 1
    66   33   34 ar
    67   33   70 1
    68   34   35 1
    69   35   36 1
    70   36   41 ar
    71   36   37 ar
    72   37   38 ar
    73   37   71 1
    74   38   39 ar
    75   38   42 1
    76   39   40 ar
    77   40   41 ar
    78   40   72 1
    79   42   73 1
    80   42   74 1
    81   43   75 1
    82   43   76 1
    83   43   77 1
@<TRIPOS>MOLECULE
CHEMBL1076433__1
   79    84     0     0     0
SMALL
USER_CHARGES

@<TRIPOS>ATOM
      1 C1         13.7645  -13.2259   -5.4335 C.3       1 <0>        -0.1896
      2 C2         12.5691  -12.8596   -6.3154 C.3       1 <0>        -0.0093
      3 N1         11.5105  -12.2698   -5.4850 N.4       1 <0>        -0.3877
      4 C3         11.0068  -13.2794   -4.5445 C.3       1 <0>        -0.0057
      5 C4          9.9171  -12.6602   -3.6665 C.3       1 <0>         0.0277
      6 N2          8.8242  -12.1713   -4.5190 N.3       1 <0>        -0.5312
      7 C5          9.3184  -11.1777   -5.4827 C.3       1 <0>         0.0207
      8 C6         10.4130  -11.8092   -6.3457 C.3       1 <0>        -0.0007
      9 C7          7.7306  -11.6195   -3.7081 C.3       1 <0>         0.0885
     10 C8          6.5359  -11.3565   -4.5881 C.ar      1 <0>        -0.0542
     11 C9          6.2826  -10.0737   -5.0405 C.ar      1 <0>        -0.1071
     12 C10         5.1908   -9.8260   -5.8464 C.ar      1 <0>        -0.0474
     13 C11         4.3402  -10.8729   -6.2063 C.ar      1 <0>        -0.1195
     14 C12         4.6007  -12.1649   -5.7475 C.ar      1 <0>        -0.0778
     15 C13         5.6997  -12.4006   -4.9452 C.ar      1 <0>        -0.0198
     16 Cl1         6.0297  -14.0078   -4.3780 Cl        1 <0>        -0.0412
     17 C14         3.1683  -10.6139   -7.0692 C.2       1 <0>         0.5653
     18 O1          2.9436   -9.4874   -7.4670 O.2       1 <0>        -0.5000
     19 N3          2.3490  -11.6267   -7.4149 N.am      1 <0>        -0.6713
     20 C15         1.1786  -11.3648   -8.1341 C.ar      1 <0>         0.1607
     21 C16         1.1712  -10.3822   -9.1168 C.ar      1 <0>        -0.0860
     22 C17         0.0155  -10.1229   -9.8278 C.ar      1 <0>        -0.0772
     23 C18        -1.1365  -10.8389   -9.5646 C.ar      1 <0>        -0.0939
     24 C19        -1.1360  -11.8223   -8.5830 C.ar      1 <0>         0.0954
     25 C20         0.0252  -12.0896   -7.8712 C.ar      1 <0>        -0.1208
     26 N4         -2.3022  -12.5460   -8.3170 N.pl3     1 <0>        -0.6179
     27 C21        -3.4265  -11.8959   -7.8511 C.cat     1 <0>         0.6576
     28 N5         -3.4824  -10.6292   -7.5248 N.pl3     1 <0>        -0.5209
     29 C22        -4.7382  -10.3184   -7.1074 C.ar      1 <0>         0.0593
     30 C23        -5.3337   -9.1383   -6.6551 C.ar      1 <0>        -0.0763
     31 C24        -6.6623   -9.1377   -6.2933 C.ar      1 <0>        -0.0771
     32 C25        -7.4143  -10.3003   -6.3741 C.ar      1 <0>        -0.0699
     33 C26        -6.8407  -11.4739   -6.8188 C.ar      1 <0>        -0.0709
     34 C27        -5.5047  -11.4925   -7.1876 C.ar      1 <0>         0.0950
     35 N6         -4.6526  -12.4775   -7.6664 N.pl3     1 <0>        -0.4125
     36 C28        -4.9820  -13.8094   -7.9111 C.ar      1 <0>         0.3976
     37 C29        -4.1756  -14.8346   -7.4311 C.ar      1 <0>        -0.3001
     38 C30        -4.5479  -16.1488   -7.7025 C.ar      1 <0>         0.4745
     39 N7         -5.6551  -16.3739   -8.4068 N.ar      1 <0>        -0.5570
     40 C31        -6.3927  -15.3738   -8.8440 C.ar      1 <0>         0.3918
     41 N8         -6.0762  -14.1178   -8.6030 N.ar      1 <0>        -0.5522
     42 N9         -3.7771  -17.2067   -7.2464 N.pl3     1 <0>        -0.8156
     43 C32        -2.3950  -10.5526  -10.3426 C.3       1 <0>        -0.1288
     44 H1         14.1438  -12.3286   -4.9446 H         1 <0>         0.0806
     45 H2         13.4514  -13.9466   -4.6781 H         1 <0>         0.0805
     46 H3         14.5500  -13.6635   -6.0497 H         1 <0>         0.1081
     47 H4         12.8822  -12.1390   -7.0709 H         1 <0>         0.1312
     48 H5         12.1899  -13.7569   -6.8044 H         1 <0>         0.1299
     49 H6         10.5912  -14.1193   -5.1012 H         1 <0>         0.1380
     50 H7         11.8249  -13.6299   -3.9152 H         1 <0>         0.1388
     51 H8          9.5328  -13.4132   -2.9786 H         1 <0>         0.1254
     52 H9         10.3358  -11.8288   -3.0994 H         1 <0>         0.0643
     53 H10         8.4972  -10.8492   -6.1198 H         1 <0>         0.1217
     54 H11         9.7272  -10.3219   -4.9455 H         1 <0>         0.0643
     55 H12        10.7909  -11.0697   -7.0518 H         1 <0>         0.1362
     56 H13        10.0004  -12.6566   -6.8932 H         1 <0>         0.1369
     57 H14         7.4590  -12.3333   -2.9304 H         1 <0>         0.1067
     58 H15         8.0550  -10.6863   -3.2474 H         1 <0>         0.0663
     59 H16         6.9410   -9.2644   -4.7617 H         1 <0>         0.1429
     60 H17         4.9942   -8.8239   -6.1980 H         1 <0>         0.1500
     61 H18         3.9465  -12.9791   -6.0223 H         1 <0>         0.1380
     62 H19         2.5711  -12.5372   -7.1648 H         1 <0>         0.4152
     63 H20         2.0699   -9.8205   -9.3247 H         1 <0>         0.1540
     64 H21         0.0124   -9.3585  -10.5907 H         1 <0>         0.1491
     65 H22         0.0296  -12.8570   -7.1113 H         1 <0>         0.1424
     66 H23        -2.3209  -13.5053   -8.4599 H         1 <0>         0.4427
     67 H24        -4.7538   -8.2296   -6.5891 H         1 <0>         0.1534
     68 H25        -7.1222   -8.2252   -5.9438 H         1 <0>         0.1580
     69 H26        -8.4553  -10.2870   -6.0868 H         1 <0>         0.1577
     70 H27        -7.4314  -12.3760   -6.8792 H         1 <0>         0.1501
     71 H28        -3.2832  -14.6177   -6.8629 H         1 <0>         0.1502
     72 H29        -7.2849  -15.5898   -9.4130 H         1 <0>         0.2225
     73 H30        -2.9716  -17.0344   -6.7342 H         1 <0>         0.4181
     74 H31        -4.0431  -18.1192   -7.4396 H         1 <0>         0.4225
     75 H32        -2.4240  -11.1829  -11.2314 H         1 <0>         0.0917
     76 H33        -3.2637  -10.7638   -9.7190 H         1 <0>         0.0476
     77 H34        -2.4076   -9.5041  -10.6401 H         1 <0>         0.0899
     78 H35        11.8845  -11.4873   -4.9694 H         1 <0>         0.4208
     79 H36        -2.7401  -10.0068   -7.5733 H         1 <0>         0.4594
@<TRIPOS>BOND
     1    1    2 1
     2    1   44 1
     3    1   45 1
     4    1   46 1
     5    2    3 1
     6    2   47 1
     7    2   48 1
     8    3    8 1
     9    3    4 1
    10    3   78 1
    11    4    5 1
    12    4   49 1
    13    4   50 1
    14    5    6 1
    15    5   51 1
    16    5   52 1
    17    6    7 1
    18    6    9 1
    19    7    8 1
    20    7   53 1
    21    7   54 1
    22    8   55 1
    23    8   56 1
    24    9   10 1
    25    9   57 1
    26    9   58 1
    27   10   15 ar
    28   10   11 ar
    29   11   12 ar
    30   11   59 1
    31   12   13 ar
    32   12   60 1
    33   13   14 ar
    34   13   17 1
    35   14   15 ar
    36   14   61 1
    37   15   16 1
    38   17   18 2
    39   17   19 am
    40   19   20 1
    41   19   62 1
    42   20   25 ar
    43   20   21 ar
    44   21   22 ar
    45   21   63 1
    46   22   23 ar
    47   22   64 1
    48   23   24 ar
    49   23   43 1
    50   24   25 ar
    51   24   26 1
    52   25   65 1
    53   26   27 1
    54   26   66 1
    55   27   35 1
    56   27   28 2
    57   28   29 1
    58   28   79 1
    59   29   34 ar
    60   29   30 ar
    61   30   31 ar
    62   30   67 1
    63   31   32 ar
    64   31   68 1
    65   32   33 ar
    66   32   69 1
    67   33   34 ar
    68   33   70 1
    69   34   35 1
    70   35   36 1
    71   36   41 ar
    72   36   37 ar
    73   37   38 ar
    74   37   71 1
    75   38   39 ar
    76   38   42 1
    77   39   40 ar
    78   40   41 ar
    79   40   72 1
    80   42   73 1
    81   42   74 1
    82   43   75 1
    83   43   76 1
    84   43   77 1
@<TRIPOS>MOLECULE
CHEMBL1088153
   66    70     0     0     0
SMALL
USER_CHARGES

@<TRIPOS>ATOM
      1 C1         -5.8456   -0.0989    3.0378 C.3       1 <0>        -0.1090
      2 C2         -5.4674   -1.5518    2.9069 C.ar      1 <0>        -0.1339
      3 C3         -5.6731   -2.2134    1.7114 C.ar      1 <0>        -0.0749
      4 C4         -5.3278   -3.5452    1.5872 C.ar      1 <0>        -0.1335
      5 C5         -4.7722   -4.2240    2.6651 C.ar      1 <0>         0.1616
      6 C6         -4.5644   -3.5627    3.8669 C.ar      1 <0>        -0.1625
      7 C7         -4.9072   -2.2231    3.9866 C.ar      1 <0>         0.1891
      8 N1         -4.6937   -1.5513    5.1940 N.pl3     1 <0>        -0.6347
      9 C8         -3.8510   -2.0908    6.1440 C.2       1 <0>         0.5501
     10 N2         -3.1010   -3.1497    5.9705 N.2       1 <0>        -0.5133
     11 C9         -2.3982   -3.4047    7.1058 C.ar      1 <0>         0.0772
     12 C10        -1.4727   -4.3896    7.4596 C.ar      1 <0>        -0.0785
     13 C11        -0.9175   -4.3853    8.7198 C.ar      1 <0>        -0.1122
     14 C12        -1.2706   -3.4106    9.6411 C.ar      1 <0>        -0.1095
     15 C13        -2.1836   -2.4313    9.3070 C.ar      1 <0>        -0.0887
     16 C14        -2.7516   -2.4200    8.0427 C.ar      1 <0>         0.0582
     17 N3         -3.6693   -1.5952    7.4078 N.pl3     1 <0>        -0.4598
     18 C15        -4.2915   -0.4744    7.9546 C.ar      1 <0>         0.4186
     19 C16        -4.2011    0.7604    7.3229 C.ar      1 <0>        -0.2994
     20 C17        -4.8405    1.8497    7.9094 C.ar      1 <0>         0.4628
     21 N4         -5.5104    1.6701    9.0459 N.ar      1 <0>        -0.5737
     22 C18        -5.5722    0.4828    9.6133 C.ar      1 <0>         0.3717
     23 N5         -4.9853   -0.5723    9.0860 N.ar      1 <0>        -0.5594
     24 N6         -4.7799    3.1023    7.3190 N.pl3     1 <0>        -0.8261
     25 N7         -4.4235   -5.5723    2.5387 N.am      1 <0>        -0.6758
     26 C19        -5.2064   -6.4069    1.8267 C.2       1 <0>         0.5953
     27 O1         -6.1418   -5.9656    1.1867 O.2       1 <0>        -0.4995
     28 C20        -4.9295   -7.8519    1.8237 C.2       1 <0>        -0.0490
     29 C21        -5.6448   -8.8336    1.1598 C.2       1 <0>        -0.1390
     30 C22        -4.9968  -10.0329    1.4638 C.2       1 <0>         0.0388
     31 N8         -3.9843   -9.7554    2.2451 N.2       1 <0>        -0.2594
     32 N9         -3.9115   -8.4930    2.4708 N.pl3     1 <0>        -0.2793
     33 C23        -2.8944   -7.8408    3.2993 C.3       1 <0>         0.0719
     34 C24        -5.3932  -11.4034    0.9782 C.3       1 <0>         0.0170
     35 C25        -4.9950  -11.5588   -0.4909 C.3       1 <0>        -0.1384
     36 C26        -4.6798  -12.4671    1.8151 C.3       1 <0>        -0.1355
     37 C27        -6.9071  -11.5756    1.1173 C.3       1 <0>        -0.1405
     38 H1         -4.9982    0.5243    2.7520 H         1 <0>         0.0726
     39 H2         -6.6916    0.1166    2.3851 H         1 <0>         0.0754
     40 H3         -6.1205    0.1133    4.0710 H         1 <0>         0.0515
     41 H4         -6.1050   -1.6883    0.8723 H         1 <0>         0.1328
     42 H5         -5.4902   -4.0595    0.6515 H         1 <0>         0.1395
     43 H6         -4.1328   -4.0880    4.7061 H         1 <0>         0.1686
     44 H7         -5.1381   -0.7060    5.3638 H         1 <0>         0.4182
     45 H8         -1.1938   -5.1520    6.7473 H         1 <0>         0.1318
     46 H9         -0.2021   -5.1469    8.9928 H         1 <0>         0.1328
     47 H10        -0.8284   -3.4183   10.6264 H         1 <0>         0.1325
     48 H11        -2.4550   -1.6755   10.0291 H         1 <0>         0.1213
     49 H12        -3.6491    0.8722    6.4014 H         1 <0>         0.1473
     50 H13        -6.1237    0.3702   10.5350 H         1 <0>         0.2100
     51 H14        -4.2895    3.2251    6.4912 H         1 <0>         0.4156
     52 H15        -5.2279    3.8561    7.7337 H         1 <0>         0.4147
     53 H16        -3.6181   -5.9068    2.9634 H         1 <0>         0.4071
     54 H17        -6.5183   -8.7004    0.5388 H         1 <0>         0.1645
     55 H18        -3.3401   -7.5299    4.2442 H         1 <0>         0.0942
     56 H19        -2.0811   -8.5400    3.4939 H         1 <0>         0.1148
     57 H20        -2.5052   -6.9673    2.7763 H         1 <0>         0.0910
     58 H21        -3.9165  -11.4361   -0.5900 H         1 <0>         0.0562
     59 H22        -5.2817  -12.5500   -0.8422 H         1 <0>         0.0643
     60 H23        -5.5033  -10.8010   -1.0872 H         1 <0>         0.0589
     61 H24        -4.9634  -12.3564    2.8618 H         1 <0>         0.0559
     62 H25        -4.9665  -13.4583    1.4639 H         1 <0>         0.0587
     63 H26        -3.6013  -12.3444    1.7160 H         1 <0>         0.0607
     64 H27        -7.4153  -10.8178    0.5210 H         1 <0>         0.0603
     65 H28        -7.1937  -12.5669    0.7660 H         1 <0>         0.0647
     66 H29        -7.1907  -11.4649    2.1639 H         1 <0>         0.0572
@<TRIPOS>BOND
     1    1    2 1
     2    1   38 1
     3    1   39 1
     4    1   40 1
     5    2    7 ar
     6    2    3 ar
     7    3    4 ar
     8    3   41 1
     9    4    5 ar
    10    4   42 1
    11    5    6 ar
    12    5   25 1
    13    6    7 ar
    14    6   43 1
    15    7    8 1
    16    8    9 1
    17    8   44 1
    18    9   17 1
    19    9   10 2
    20   10   11 1
    21   11   16 ar
    22   11   12 ar
    23   12   13 ar
    24   12   45 1
    25   13   14 ar
    26   13   46 1
    27   14   15 ar
    28   14   47 1
    29   15   16 ar
    30   15   48 1
    31   16   17 1
    32   17   18 1
    33   18   23 ar
    34   18   19 ar
    35   19   20 ar
    36   19   49 1
    37   20   21 ar
    38   20   24 1
    39   21   22 ar
    40   22   23 ar
    41   22   50 1
    42   24   51 1
    43   24   52 1
    44   25   26 am
    45   25   53 1
    46   26   27 2
    47   26   28 1
    48   28   32 1
    49   28   29 2
    50   29   30 1
    51   29   54 1
    52   30   31 2
    53   30   34 1
    54   31   32 1
    55   32   33 1
    56   33   55 1
    57   33   56 1
    58   33   57 1
    59   34   35 1
    60   34   36 1
    61   34   37 1
    62   35   58 1
    63   35   59 1
    64   35   60 1
    65   36   61 1
    66   36   62 1
    67   36   63 1
    68   37   64 1
    69   37   65 1
    70   37   66 1
@<TRIPOS>MOLECULE
CHEMBL1088153__1
   67    71     0     0     0
SMALL
USER_CHARGES

@<TRIPOS>ATOM
      1 C1          0.7071    1.9630   -1.4151 C.3       1 <0>        -0.1180
      2 C2         -0.6673    1.4566   -1.0609 C.ar      1 <0>        -0.0989
      3 C3         -1.2042    0.3822   -1.7441 C.ar      1 <0>        -0.0647
      4 C4         -2.4637   -0.0851   -1.4225 C.ar      1 <0>        -0.1070
      5 C5         -3.1952    0.5244   -0.4102 C.ar      1 <0>         0.1764
      6 C6         -2.6591    1.6033    0.2778 C.ar      1 <0>        -0.1715
      7 C7         -1.3910    2.0669   -0.0439 C.ar      1 <0>         0.1453
      8 N1         -0.8446    3.1499    0.6510 N.pl3     1 <0>        -0.6702
      9 C8         -1.1150    3.3152    1.9939 C.cat     1 <0>         0.6305
     10 N2         -0.6028    2.5940    2.9591 N.pl3     1 <0>        -0.4769
     11 C9         -1.0817    3.0241    4.1564 C.ar      1 <0>         0.0524
     12 C10        -0.8693    2.6175    5.4760 C.ar      1 <0>        -0.0775
     13 C11        -1.5161    3.2662    6.5041 C.ar      1 <0>        -0.0722
     14 C12        -2.3776    4.3204    6.2396 C.ar      1 <0>        -0.0675
     15 C13        -2.5983    4.7336    4.9416 C.ar      1 <0>        -0.0673
     16 C14        -1.9548    4.0925    3.8946 C.ar      1 <0>         0.0921
     17 N3         -1.9549    4.2620    2.5174 N.pl3     1 <0>        -0.3766
     18 C15        -2.6764    5.2151    1.8009 C.ar      1 <0>         0.3959
     19 C16        -2.6946    5.1874    0.4114 C.ar      1 <0>        -0.2994
     20 C17        -3.4305    6.1619   -0.2582 C.ar      1 <0>         0.4754
     21 N4         -4.0852    7.0782    0.4519 N.ar      1 <0>        -0.5620
     22 C18        -4.0426    7.0698    1.7686 C.ar      1 <0>         0.3916
     23 N5         -3.3622    6.1613    2.4375 N.ar      1 <0>        -0.5664
     24 N6         -3.4801    6.1778   -1.6433 N.pl3     1 <0>        -0.8137
     25 N7         -4.4703    0.0509   -0.0856 N.am      1 <0>        -0.6835
     26 C19        -5.3031   -0.3647   -1.0604 C.2       1 <0>         0.6010
     27 O1         -4.9124   -0.4214   -2.2109 O.2       1 <0>        -0.4899
     28 C20        -6.6848   -0.7498   -0.7328 C.2       1 <0>        -0.0606
     29 C21        -7.7312   -0.9259   -1.6218 C.2       1 <0>        -0.1305
     30 C22        -8.8281   -1.2851   -0.8354 C.2       1 <0>         0.0461
     31 N8         -8.4357   -1.3120    0.4127 N.2       1 <0>        -0.2533
     32 N9         -7.1907   -1.0110    0.5089 N.pl3     1 <0>        -0.2823
     33 C23        -6.4304   -0.9524    1.7598 C.3       1 <0>         0.0732
     34 C24       -10.2171   -1.5879   -1.3355 C.3       1 <0>         0.0150
     35 C25       -10.2329   -2.9700   -1.9916 C.3       1 <0>        -0.1399
     36 C26       -11.1973   -1.5697   -0.1608 C.3       1 <0>        -0.1367
     37 C27       -10.6313   -0.5315   -2.3617 C.3       1 <0>        -0.1410
     38 H1          1.4527    1.4385   -0.8176 H         1 <0>         0.0810
     39 H2          0.8985    1.7848   -2.4733 H         1 <0>         0.0844
     40 H3          0.7642    3.0321   -1.2106 H         1 <0>         0.0602
     41 H4         -0.6380   -0.0930   -2.5315 H         1 <0>         0.1468
     42 H5         -2.8806   -0.9248   -1.9587 H         1 <0>         0.1501
     43 H6         -3.2255    2.0787    1.0650 H         1 <0>         0.1205
     44 H7         -0.2755    3.7852    0.1891 H         1 <0>         0.4439
     45 H8         -0.2002    1.7968    5.6890 H         1 <0>         0.1563
     46 H9         -1.3515    2.9515    7.5241 H         1 <0>         0.1598
     47 H10        -2.8792    4.8208    7.0547 H         1 <0>         0.1598
     48 H11        -3.2709    5.5546    4.7420 H         1 <0>         0.1672
     49 H12        -2.1519    4.4302   -0.1349 H         1 <0>         0.1623
     50 H13        -4.5847    7.8270    2.3156 H         1 <0>         0.2211
     51 H14        -3.0000    5.5070   -2.1536 H         1 <0>         0.4190
     52 H15        -3.9949    6.8599   -2.1023 H         1 <0>         0.4216
     53 H16        -4.7554    0.0217    0.8411 H         1 <0>         0.4079
     54 H17        -7.7049   -0.8101   -2.6953 H         1 <0>         0.1670
     55 H18        -6.3803    0.0797    2.1066 H         1 <0>         0.0866
     56 H19        -6.9239   -1.5656    2.5139 H         1 <0>         0.1159
     57 H20        -5.4214   -1.3279    1.5896 H         1 <0>         0.0897
     58 H21        -9.9378   -3.7227   -1.2604 H         1 <0>         0.0570
     59 H22       -11.2375   -3.1891   -2.3532 H         1 <0>         0.0678
     60 H23        -9.5346   -2.9830   -2.8284 H         1 <0>         0.0594
     61 H24       -11.1861   -0.5851    0.3066 H         1 <0>         0.0554
     62 H25       -12.2019   -1.7888   -0.5225 H         1 <0>         0.0621
     63 H26       -10.9022   -2.3224    0.5703 H         1 <0>         0.0612
     64 H27        -9.9330   -0.5444   -3.1986 H         1 <0>         0.0600
     65 H28       -11.6359   -0.7505   -2.7234 H         1 <0>         0.0683
     66 H29       -10.6201    0.4532   -1.8944 H         1 <0>         0.0565
     67 H30         0.0234    1.8632    2.8381 H         1 <0>         0.4638
@<TRIPOS>BOND
     1    1    2 1
     2    1   38 1
     3    1   39 1
     4    1   40 1
     5    2    7 ar
     6    2    3 ar
     7    3    4 ar
     8    3   41 1
     9    4    5 ar
    10    4   42 1
    11    5    6 ar
    12    5   25 1
    13    6    7 ar
    14    6   43 1
    15    7    8 1
    16    8    9 1
    17    8   44 1
    18    9   17 1
    19    9   10 2
    20   10   11 1
    21   10   67 1
    22   11   16 ar
    23   11   12 ar
    24   12   13 ar
    25   12   45 1
    26   13   14 ar
    27   13   46 1
    28   14   15 ar
    29   14   47 1
    30   15   16 ar
    31   15   48 1
    32   16   17 1
    33   17   18 1
    34   18   23 ar
    35   18   19 ar
    36   19   20 ar
    37   19   49 1
    38   20   21 ar
    39   20   24 1
    40   21   22 ar
    41   22   23 ar
    42   22   50 1
    43   24   51 1
    44   24   52 1
    45   25   26 am
    46   25   53 1
    47   26   27 2
    48   26   28 1
    49   28   32 1
    50   28   29 2
    51   29   30 1
    52   29   54 1
    53   30   31 2
    54   30   34 1
    55   31   32 1
    56   32   33 1
    57   33   55 1
    58   33   56 1
    59   33   57 1
    60   34   35 1
    61   34   36 1
    62   34   37 1
    63   35   58 1
    64   35   59 1
    65   35   60 1
    66   36   61 1
    67   36   62 1
    68   36   63 1
    69   37   64 1
    70   37   65 1
    71   37   66 1
@<TRIPOS>MOLECULE
CHEMBL385172
   41    43     0     0     0
SMALL
USER_CHARGES

@<TRIPOS>ATOM
      1 C1          0.2588    1.4979    0.0772 C.3       1 <0>        -0.1156
      2 C2          0.1067    0.0007   -0.0020 C.ar      1 <0>        -0.0774
      3 C3          1.0904   -0.8211    0.5168 C.ar      1 <0>        -0.1177
      4 C4          0.9540   -2.1936    0.4462 C.ar      1 <0>        -0.0586
      5 C5         -0.1729   -2.7483   -0.1468 C.ar      1 <0>         0.1243
      6 C6         -1.1591   -1.9200   -0.6670 C.ar      1 <0>        -0.0836
      7 C7         -1.0189   -0.5483   -0.5884 C.ar      1 <0>        -0.1183
      8 C8         -2.3834   -2.5175   -1.3113 C.3       1 <0>        -0.1120
      9 N1         -0.3140   -4.1376   -0.2204 N.am      1 <0>        -0.6716
     10 C9         -0.2735   -4.8795    0.9041 C.2       1 <0>         0.6169
     11 O1         -0.0129   -4.3541    1.9711 O.2       1 <0>        -0.5047
     12 C10        -0.5424   -6.3154    0.8426 C.2       1 <0>        -0.3115
     13 C11        -0.5605   -7.2585    1.8610 C.2       1 <0>         0.1716
     14 N2         -0.8357   -8.4890    1.5092 N.2       1 <0>        -0.5278
     15 C12        -1.0819   -8.8083    0.2509 C.2       1 <0>         0.3075
     16 S1         -0.9464   -7.3411   -0.5623 S.3       1 <0>         0.1424
     17 N3         -1.3842  -10.0496   -0.2717 N.pl3     1 <0>        -0.5893
     18 C13        -1.5702  -11.1360    0.5782 C.ar      1 <0>         0.3167
     19 C14        -1.7643  -12.4104    0.0504 C.ar      1 <0>         0.0264
     20 N4         -1.9398  -13.4376    0.8596 N.ar      1 <0>        -0.4081
     21 C15        -1.9315  -13.2582    2.1700 C.ar      1 <0>         0.0136
     22 C16        -1.7396  -11.9953    2.6973 C.ar      1 <0>         0.0941
     23 N5         -1.5575  -10.9616    1.8931 N.ar      1 <0>        -0.4320
     24 C17         2.0267   -3.0884    1.0115 C.3       1 <0>        -0.1083
     25 H1         -0.1793    1.8589    1.0078 H         1 <0>         0.0719
     26 H2          1.3170    1.7576    0.0491 H         1 <0>         0.0674
     27 H3         -0.2513    1.9602   -0.7678 H         1 <0>         0.0670
     28 H4          1.9666   -0.3891    0.9775 H         1 <0>         0.1259
     29 H5         -1.7873    0.0963   -0.9890 H         1 <0>         0.1261
     30 H6         -3.1845   -2.5859   -0.5754 H         1 <0>         0.0729
     31 H7         -2.7036   -1.8849   -2.1392 H         1 <0>         0.0711
     32 H8         -2.1476   -3.5138   -1.6854 H         1 <0>         0.0607
     33 H9         -0.4411   -4.5673   -1.0806 H         1 <0>         0.4045
     34 H10        -0.3581   -6.9916    2.8877 H         1 <0>         0.1887
     35 H11        -1.4670  -10.1647   -1.2313 H         1 <0>         0.4416
     36 H12        -1.7716  -12.5574   -1.0195 H         1 <0>         0.1708
     37 H13        -2.0754  -14.1010    2.8298 H         1 <0>         0.1742
     38 H14        -1.7342  -11.8531    3.7678 H         1 <0>         0.1759
     39 H15         1.8773   -3.2011    2.0853 H         1 <0>         0.0861
     40 H16         1.9738   -4.0662    0.5327 H         1 <0>         0.0563
     41 H17         3.0050   -2.6451    0.8253 H         1 <0>         0.0618
@<TRIPOS>BOND
     1    1    2 1
     2    1   25 1
     3    1   26 1
     4    1   27 1
     5    2    7 ar
     6    2    3 ar
     7    3    4 ar
     8    3   28 1
     9    4    5 ar
    10    4   24 1
    11    5    6 ar
    12    5    9 1
    13    6    7 ar
    14    6    8 1
    15    7   29 1
    16    8   30 1
    17    8   31 1
    18    8   32 1
    19    9   10 am
    20    9   33 1
    21   10   11 2
    22   10   12 1
    23   12   16 1
    24   12   13 2
    25   13   14 1
    26   13   34 1
    27   14   15 2
    28   15   16 1
    29   15   17 1
    30   17   18 1
    31   17   35 1
    32   18   23 ar
    33   18   19 ar
    34   19   20 ar
    35   19   36 1
    36   20   21 ar
    37   21   22 ar
    38   21   37 1
    39   22   23 ar
    40   22   38 1
    41   24   39 1
    42   24   40 1
    43   24   41 1
@<TRIPOS>MOLECULE
CHEMBL385598
   64    68     0     0     0
SMALL
USER_CHARGES

@<TRIPOS>ATOM
      1 C1          0.0321    1.5035    0.0085 C.3       1 <0>        -0.1264
      2 C2          0.0403   -0.0034    0.0006 C.ar      1 <0>        -0.0380
      3 C3          0.0401   -0.6862   -1.2004 C.ar      1 <0>        -0.1225
      4 C4          0.0471   -2.0662   -1.2164 C.ar      1 <0>        -0.0781
      5 C5          0.0549   -2.7807   -0.0162 C.ar      1 <0>        -0.1420
      6 C6          0.0556   -2.0963    1.1979 C.ar      1 <0>        -0.0367
      7 C7          0.0537   -0.7051    1.2056 C.ar      1 <0>        -0.0503
      8 C8          0.0600    0.0308    2.4938 C.ar      1 <0>        -0.0777
      9 C9          0.9861    1.0655    2.7001 C.ar      1 <0>        -0.0507
     10 C10         1.0142    1.7558    3.8709 C.ar      1 <0>        -0.1205
     11 C11         0.1073    1.4364    4.8937 C.ar      1 <0>         0.2181
     12 C12        -0.8334    0.3923    4.6949 C.ar      1 <0>        -0.2150
     13 C13        -0.8506   -0.3044    3.4800 C.ar      1 <0>        -0.0347
     14 C14        -1.7315    0.0932    5.7372 C.ar      1 <0>         0.2450
     15 N1         -1.6593    0.7945    6.8490 N.ar      1 <0>        -0.5584
     16 C15        -0.7635    1.7679    7.0014 C.ar      1 <0>         0.5696
     17 N2          0.1021    2.0923    6.0607 N.ar      1 <0>        -0.5746
     18 N3         -0.7399    2.4671    8.1945 N.pl3     1 <0>        -0.7002
     19 C16        -1.6884    2.1311    9.2594 C.3       1 <0>         0.1036
     20 C17         0.0619   -4.2589   -0.0337 C.2       1 <0>         0.5636
     21 O1          0.0687   -4.8791    1.0118 O.2       1 <0>        -0.5054
     22 N4          0.0608   -4.9189   -1.2088 N.am      1 <0>        -0.6608
     23 C18         0.1844   -6.3134   -1.2286 C.ar      1 <0>         0.1633
     24 C19         0.8036   -6.9719   -0.1763 C.ar      1 <0>        -0.0783
     25 C20         0.9245   -8.3484   -0.1980 C.ar      1 <0>        -0.1538
     26 C21         0.4297   -9.0734   -1.2668 C.ar      1 <0>        -0.0800
     27 C22        -0.1882   -8.4256   -2.3197 C.ar      1 <0>        -0.0857
     28 C23        -0.3195   -7.0450   -2.3035 C.ar      1 <0>         0.1669
     29 N5         -0.9516   -6.3867   -3.3667 N.am      1 <0>        -0.5996
     30 C24        -0.2837   -5.8898   -4.5789 C.3       1 <0>         0.0911
     31 C25        -1.4272   -5.2620   -5.3994 C.3       1 <0>         0.0928
     32 N6         -2.6179   -5.4719   -4.5624 N.am      1 <0>        -0.6349
     33 C26        -2.2610   -6.1152   -3.4430 C.2       1 <0>         0.7002
     34 O2         -3.0534   -6.4215   -2.5730 O.2       1 <0>        -0.5621
     35 C27        -3.9791   -5.0500   -4.9017 C.3       1 <0>         0.1200
     36 C28         1.5979   -9.0616    0.9461 C.3       1 <0>         0.5110
     37 F1          0.6444   -9.3940    1.9144 F         1 <0>        -0.1716
     38 F2          2.2090  -10.2280    0.4736 F         1 <0>        -0.1748
     39 F3          2.5655   -8.2248    1.5124 F         1 <0>        -0.1738
     40 H1          1.0577    1.8725    0.0022 H         1 <0>         0.0797
     41 H2         -0.4909    1.8686   -0.8755 H         1 <0>         0.0724
     42 H3         -0.4766    1.8594    0.9044 H         1 <0>         0.0760
     43 H4          0.0341   -0.1377   -2.1308 H         1 <0>         0.1343
     44 H5          0.0462   -2.5946   -2.1584 H         1 <0>         0.1219
     45 H6          0.0612   -2.6437    2.1289 H         1 <0>         0.1417
     46 H7          1.6867    1.3165    1.9174 H         1 <0>         0.1341
     47 H8          1.7335    2.5486    4.0140 H         1 <0>         0.1398
     48 H9         -1.5647   -1.0980    3.3162 H         1 <0>         0.1367
     49 H10        -2.4633   -0.6934    5.6269 H         1 <0>         0.1790
     50 H11        -0.0954    3.1800    8.3263 H         1 <0>         0.4166
     51 H12        -1.5448    1.0931    9.5595 H         1 <0>         0.0607
     52 H13        -1.5192    2.7837   10.1158 H         1 <0>         0.0775
     53 H14        -2.7067    2.2664    8.8949 H         1 <0>         0.0605
     54 H15        -0.0256   -4.4278   -2.0409 H         1 <0>         0.4110
     55 H16         1.1914   -6.4089    0.6598 H         1 <0>         0.1658
     56 H17         0.5268  -10.1490   -1.2788 H         1 <0>         0.1457
     57 H18        -0.5728   -8.9948   -3.1531 H         1 <0>         0.1435
     58 H19         0.4620   -5.1369   -4.3236 H         1 <0>         0.0844
     59 H20         0.1742   -6.7125   -5.1280 H         1 <0>         0.0921
     60 H21        -1.2492   -4.1974   -5.5515 H         1 <0>         0.0874
     61 H22        -1.5370   -5.7730   -6.3559 H         1 <0>         0.0882
     62 H23        -4.4818   -5.8488   -5.4471 H         1 <0>         0.0581
     63 H24        -4.5305   -4.8317   -3.9871 H         1 <0>         0.0785
     64 H25        -3.9380   -4.1556   -5.5234 H         1 <0>         0.0761
@<TRIPOS>BOND
     1    1    2 1
     2    1   40 1
     3    1   41 1
     4    1   42 1
     5    2    7 ar
     6    2    3 ar
     7    3    4 ar
     8    3   43 1
     9    4    5 ar
    10    4   44 1
    11    5    6 ar
    12    5   20 1
    13    6    7 ar
    14    6   45 1
    15    7    8 1
    16    8   13 ar
    17    8    9 ar
    18    9   10 ar
    19    9   46 1
    20   10   11 ar
    21   10   47 1
    22   11   17 ar
    23   11   12 ar
    24   12   13 ar
    25   12   14 ar
    26   13   48 1
    27   14   15 ar
    28   14   49 1
    29   15   16 ar
    30   16   17 ar
    31   16   18 1
    32   18   19 1
    33   18   50 1
    34   19   51 1
    35   19   52 1
    36   19   53 1
    37   20   21 2
    38   20   22 am
    39   22   23 1
    40   22   54 1
    41   23   28 ar
    42   23   24 ar
    43   24   25 ar
    44   24   55 1
    45   25   26 ar
    46   25   36 1
    47   26   27 ar
    48   26   56 1
    49   27   28 ar
    50   27   57 1
    51   28   29 1
    52   29   33 am
    53   29   30 1
    54   30   31 1
    55   30   58 1
    56   30   59 1
    57   31   32 1
    58   31   60 1
    59   31   61 1
    60   32   33 am
    61   32   35 1
    62   33   34 2
    63   35   62 1
    64   35   63 1
    65   35   64 1
    66   36   37 1
    67   36   38 1
    68   36   39 1
@<TRIPOS>MOLECULE
CHEMBL233958
   76    81     0     0     0
SMALL
USER_CHARGES

@<TRIPOS>ATOM
      1 C1         -4.3700   -0.8661    1.0504 C.3       1 <0>         0.0755
      2 N1         -3.3408   -0.1936    0.2537 N.pl3     1 <0>        -0.4498
      3 C2         -3.1520   -0.3423   -1.1001 C.ar      1 <0>         0.1174
      4 C3         -3.7990   -1.0969   -2.0749 C.ar      1 <0>        -0.1338
      5 C4         -3.3716   -1.0371   -3.3823 C.ar      1 <0>        -0.0760
      6 C5         -2.2990   -0.2300   -3.7406 C.ar      1 <0>        -0.1423
      7 C6         -1.6491    0.5186   -2.8031 C.ar      1 <0>        -0.0601
      8 C7         -2.0649    0.4752   -1.4659 C.ar      1 <0>        -0.1219
      9 C8         -1.6136    1.1146   -0.2860 C.2       1 <0>        -0.1226
     10 C9         -2.4041    0.6988    0.7381 C.2       1 <0>        -0.0013
     11 C10        -2.2801    1.1277    2.1389 C.2       1 <0>         0.5970
     12 O1         -2.9838    0.6236    2.9941 O.2       1 <0>        -0.5249
     13 N2         -1.3871    2.0792    2.4758 N.am      1 <0>        -0.6498
     14 C11        -1.2658    2.4845    3.8107 C.ar      1 <0>         0.1545
     15 C12        -2.3311    2.3180    4.6854 C.ar      1 <0>        -0.1034
     16 C13        -2.2151    2.7162    6.0011 C.ar      1 <0>        -0.1202
     17 C14        -1.0266    3.2871    6.4555 C.ar      1 <0>        -0.0690
     18 C15         0.0442    3.4550    5.5783 C.ar      1 <0>        -0.1631
     19 C16        -0.0736    3.0495    4.2613 C.ar      1 <0>         0.1106
     20 O2          0.9710    3.2064    3.4051 O.3       1 <0>        -0.3100
     21 C17         2.1618    3.7923    3.9350 C.3       1 <0>         0.0251
     22 C18        -0.9021    3.7153    7.8690 C.2       1 <0>        -0.0381
     23 C19        -0.5895    4.9964    8.1756 C.2       1 <0>        -0.1233
     24 S1         -0.5617    5.0017    9.9582 S.3       1 <0>         0.2154
     25 C20        -0.9661    3.3017   10.2481 C.ar      1 <0>        -0.0614
     26 C21        -1.1204    2.7641    8.9557 C.ar      1 <0>        -0.1314
     27 C22        -1.4585    1.3870    8.8927 C.ar      1 <0>         0.5115
     28 N3         -1.6188    0.6720    9.9872 N.ar      1 <0>        -0.5002
     29 C23        -1.4813    1.1661   11.2054 C.ar      1 <0>         0.1372
     30 C24        -1.1401    2.5058   11.3811 C.ar      1 <0>        -0.0546
     31 C25        -0.9833    3.0739   12.7346 C.2       1 <0>        -0.0413
     32 C26        -1.1524    2.3031   13.8015 C.2       1 <0>        -0.1991
     33 C27        -0.9923    2.8831   15.1831 C.3       1 <0>         0.0285
     34 N4         -2.2089    2.6270   15.9656 N.4       1 <0>        -0.3849
     35 C28        -3.3374    3.3457   15.3620 C.3       1 <0>        -0.0039
     36 C29        -4.6226    3.0180   16.1251 C.3       1 <0>        -0.1441
     37 C30        -4.4653    3.4469   17.5868 C.3       1 <0>         0.0952
     38 C31        -3.2410    2.7478   18.1848 C.3       1 <0>        -0.1851
     39 C32        -2.0070    3.0855   17.3453 C.3       1 <0>        -0.0033
     40 O3         -5.6335    3.0766   18.3218 O.3       1 <0>        -0.5528
     41 N5         -1.6237    0.7829    7.6552 N.pl3     1 <0>        -0.8144
     42 H1         -5.2320   -0.2082    1.1603 H         1 <0>         0.0730
     43 H2         -4.6754   -1.7844    0.5488 H         1 <0>         0.0846
     44 H3         -3.9683   -1.1062    2.0348 H         1 <0>         0.0954
     45 H4         -4.6335   -1.7276   -1.8062 H         1 <0>         0.1243
     46 H5         -3.8749   -1.6236   -4.1367 H         1 <0>         0.1329
     47 H6         -1.9764   -0.1951   -4.7707 H         1 <0>         0.1300
     48 H7         -0.8165    1.1433   -3.0912 H         1 <0>         0.1285
     49 H8         -0.7916    1.8113   -0.2137 H         1 <0>         0.1524
     50 H9         -0.8284    2.4833    1.7936 H         1 <0>         0.4256
     51 H10        -3.2523    1.8764    4.3350 H         1 <0>         0.1717
     52 H11        -3.0453    2.5860    6.6796 H         1 <0>         0.1303
     53 H12         0.9656    3.8969    5.9279 H         1 <0>         0.1432
     54 H13         1.9391    4.7907    4.3114 H         1 <0>         0.0613
     55 H14         2.5403    3.1734    4.7485 H         1 <0>         0.0584
     56 H15         2.9143    3.8597    3.1494 H         1 <0>         0.1125
     57 H16        -0.4018    5.8189    7.5013 H         1 <0>         0.2173
     58 H17        -1.6257    0.5290   12.0654 H         1 <0>         0.2101
     59 H18        -0.7311    4.1170   12.8565 H         1 <0>         0.1499
     60 H19        -1.4046    1.2600   13.6795 H         1 <0>         0.1411
     61 H20        -0.1387    2.4177   15.6759 H         1 <0>         0.1488
     62 H21        -0.8275    3.9580   15.1091 H         1 <0>         0.1386
     63 H22        -3.1512    4.4186   15.4088 H         1 <0>         0.1333
     64 H23        -3.4461    3.0418   14.3209 H         1 <0>         0.1329
     65 H24        -5.4590    3.5540   15.6765 H         1 <0>         0.1204
     66 H25        -4.8100    1.9452   16.0788 H         1 <0>         0.0962
     67 H26        -4.3290    4.5272   17.6370 H         1 <0>         0.0743
     68 H27        -3.0899    3.0907   19.2083 H         1 <0>         0.1185
     69 H28        -3.3997    1.6694   18.1811 H         1 <0>         0.0980
     70 H29        -1.1335    2.5895   17.7684 H         1 <0>         0.1376
     71 H30        -1.8491    4.1640   17.3498 H         1 <0>         0.1336
     72 H31        -5.6025    3.3184   19.2576 H         1 <0>         0.3977
     73 H32        -1.0998    1.0821    6.8957 H         1 <0>         0.4442
     74 H33        -2.2631    0.0612    7.5493 H         1 <0>         0.4273
     75 H34        -2.4049    1.6372   15.9665 H         1 <0>         0.4249
     76 H35        -1.8500   -0.2654    9.8944 H         1 <0>         0.4486
@<TRIPOS>BOND
     1    1    2 1
     2    1   42 1
     3    1   43 1
     4    1   44 1
     5    2   10 1
     6    2    3 1
     7    3    8 ar
     8    3    4 ar
     9    4    5 ar
    10    4   45 1
    11    5    6 ar
    12    5   46 1
    13    6    7 ar
    14    6   47 1
    15    7    8 ar
    16    7   48 1
    17    8    9 1
    18    9   10 2
    19    9   49 1
    20   10   11 1
    21   11   12 2
    22   11   13 am
    23   13   14 1
    24   13   50 1
    25   14   19 ar
    26   14   15 ar
    27   15   16 ar
    28   15   51 1
    29   16   17 ar
    30   16   52 1
    31   17   18 ar
    32   17   22 1
    33   18   19 ar
    34   18   53 1
    35   19   20 1
    36   20   21 1
    37   21   54 1
    38   21   55 1
    39   21   56 1
    40   22   26 1
    41   22   23 2
    42   23   24 1
    43   23   57 1
    44   24   25 1
    45   25   30 ar
    46   25   26 ar
    47   26   27 ar
    48   27   28 ar
    49   27   41 1
    50   28   29 ar
    51   28   76 1
    52   29   30 ar
    53   29   58 1
    54   30   31 1
    55   31   32 2
    56   31   59 1
    57   32   33 1
    58   32   60 1
    59   33   34 1
    60   33   61 1
    61   33   62 1
    62   34   39 1
    63   34   35 1
    64   34   75 1
    65   35   36 1
    66   35   63 1
    67   35   64 1
    68   36   37 1
    69   36   65 1
    70   36   66 1
    71   37   38 1
    72   37   40 1
    73   37   67 1
    74   38   39 1
    75   38   68 1
    76   38   69 1
    77   39   70 1
    78   39   71 1
    79   40   72 1
    80   41   73 1
    81   41   74 1
@<TRIPOS>MOLECULE
CHEMBL233958__1
   75    80     0     0     0
SMALL
USER_CHARGES

@<TRIPOS>ATOM
      1 C1         -4.3700   -0.8661    1.0504 C.3       1 <0>         0.0749
      2 N1         -3.3408   -0.1936    0.2537 N.pl3     1 <0>        -0.4493
      3 C2         -3.1520   -0.3423   -1.1001 C.ar      1 <0>         0.1158
      4 C3         -3.7990   -1.0969   -2.0749 C.ar      1 <0>        -0.1327
      5 C4         -3.3716   -1.0371   -3.3823 C.ar      1 <0>        -0.0790
      6 C5         -2.2990   -0.2300   -3.7406 C.ar      1 <0>        -0.1438
      7 C6         -1.6491    0.5186   -2.8031 C.ar      1 <0>        -0.0604
      8 C7         -2.0649    0.4752   -1.4659 C.ar      1 <0>        -0.1208
      9 C8         -1.6136    1.1146   -0.2860 C.2       1 <0>        -0.1262
     10 C9         -2.4041    0.6988    0.7381 C.2       1 <0>         0.0041
     11 C10        -2.2801    1.1277    2.1389 C.2       1 <0>         0.5942
     12 O1         -2.9838    0.6236    2.9941 O.2       1 <0>        -0.5234
     13 N2         -1.3871    2.0792    2.4758 N.am      1 <0>        -0.6486
     14 C11        -1.2658    2.4845    3.8107 C.ar      1 <0>         0.1467
     15 C12        -2.3311    2.3180    4.6854 C.ar      1 <0>        -0.1024
     16 C13        -2.2151    2.7162    6.0011 C.ar      1 <0>        -0.1181
     17 C14        -1.0266    3.2871    6.4555 C.ar      1 <0>        -0.0562
     18 C15         0.0442    3.4550    5.5783 C.ar      1 <0>        -0.1647
     19 C16        -0.0736    3.0495    4.2613 C.ar      1 <0>         0.1087
     20 O2          0.9710    3.2064    3.4051 O.3       1 <0>        -0.3124
     21 C17         2.1618    3.7923    3.9350 C.3       1 <0>         0.0255
     22 C18        -0.9021    3.7153    7.8690 C.2       1 <0>        -0.0451
     23 C19        -0.5895    4.9964    8.1756 C.2       1 <0>        -0.1307
     24 S1         -0.5617    5.0017    9.9582 S.3       1 <0>         0.2053
     25 C20        -0.9661    3.3017   10.2481 C.ar      1 <0>        -0.0573
     26 C21        -1.1204    2.7641    8.9557 C.ar      1 <0>        -0.1320
     27 C22        -1.4585    1.3870    8.8927 C.ar      1 <0>         0.4925
     28 N3         -1.6188    0.6720    9.9872 N.ar      1 <0>        -0.4892
     29 C23        -1.4813    1.1661   11.2054 C.ar      1 <0>         0.1082
     30 C24        -1.1401    2.5058   11.3811 C.ar      1 <0>        -0.0091
     31 C25        -0.9833    3.0739   12.7346 C.2       1 <0>        -0.1467
     32 C26        -1.1524    2.3031   13.8015 C.2       1 <0>        -0.0740
     33 C27        -0.9923    2.8831   15.1831 C.3       1 <0>         0.0710
     34 N4         -2.2089    2.6270   15.9656 N.3       1 <0>        -0.5365
     35 C28        -3.3565    3.3531   15.4070 C.3       1 <0>         0.0570
     36 C29        -4.6296    2.9508   16.1549 C.3       1 <0>        -0.1117
     37 C30        -4.4681    3.2801   17.6415 C.3       1 <0>         0.1018
     38 C31        -3.2380    2.5496   18.1872 C.3       1 <0>        -0.1514
     39 C32        -2.0052    2.9636   17.3804 C.3       1 <0>         0.0577
     40 O3         -5.6313    2.8546   18.3540 O.3       1 <0>        -0.5659
     41 N5         -1.6237    0.7829    7.6552 N.pl3     1 <0>        -0.8275
     42 H1         -5.2320   -0.2082    1.1603 H         1 <0>         0.0734
     43 H2         -4.6754   -1.7844    0.5488 H         1 <0>         0.0839
     44 H3         -3.9683   -1.1062    2.0348 H         1 <0>         0.0969
     45 H4         -4.6335   -1.7276   -1.8062 H         1 <0>         0.1237
     46 H5         -3.8749   -1.6236   -4.1367 H         1 <0>         0.1316
     47 H6         -1.9764   -0.1951   -4.7707 H         1 <0>         0.1286
     48 H7         -0.8165    1.1433   -3.0912 H         1 <0>         0.1278
     49 H8         -0.7916    1.8113   -0.2137 H         1 <0>         0.1525
     50 H9         -0.8284    2.4833    1.7936 H         1 <0>         0.4239
     51 H10        -3.2523    1.8764    4.3350 H         1 <0>         0.1699
     52 H11        -3.0453    2.5860    6.6796 H         1 <0>         0.1318
     53 H12         0.9656    3.8969    5.9279 H         1 <0>         0.1425
     54 H13         1.9391    4.7907    4.3114 H         1 <0>         0.0608
     55 H14         2.5403    3.1734    4.7485 H         1 <0>         0.0586
     56 H15         2.9143    3.8597    3.1494 H         1 <0>         0.1100
     57 H16        -0.4018    5.8189    7.5013 H         1 <0>         0.2126
     58 H17        -1.6257    0.5290   12.0654 H         1 <0>         0.2126
     59 H18        -0.7311    4.1170   12.8565 H         1 <0>         0.1383
     60 H19        -1.4046    1.2600   13.6795 H         1 <0>         0.1254
     61 H20        -0.1387    2.4177   15.6759 H         1 <0>         0.1004
     62 H21        -0.8275    3.9580   15.1091 H         1 <0>         0.0506
     63 H22        -3.1953    4.4257   15.5153 H         1 <0>         0.0394
     64 H23        -3.4628    3.1068   14.3505 H         1 <0>         0.0795
     65 H24        -5.4788    3.5016   15.7503 H         1 <0>         0.0760
     66 H25        -4.7990    1.8807   16.0355 H         1 <0>         0.0799
     67 H26        -4.3375    4.3552   17.7643 H         1 <0>         0.0524
     68 H27        -3.0929    2.8138   19.2347 H         1 <0>         0.0742
     69 H28        -3.3854    1.4732   18.0999 H         1 <0>         0.0823
     70 H29        -1.1300    2.4344   17.7573 H         1 <0>         0.0836
     71 H30        -1.8503    4.0380   17.4795 H         1 <0>         0.0400
     72 H31        -5.5976    3.0323   19.3040 H         1 <0>         0.3822
     73 H32        -1.0998    1.0821    6.8957 H         1 <0>         0.4390
     74 H33        -2.2631    0.0612    7.5493 H         1 <0>         0.4228
     75 H34        -1.8500   -0.2654    9.8944 H         1 <0>         0.4449
@<TRIPOS>BOND
     1    1    2 1
     2    1   42 1
     3    1   43 1
     4    1   44 1
     5    2   10 1
     6    2    3 1
     7    3    8 ar
     8    3    4 ar
     9    4    5 ar
    10    4   45 1
    11    5    6 ar
    12    5   46 1
    13    6    7 ar
    14    6   47 1
    15    7    8 ar
    16    7   48 1
    17    8    9 1
    18    9   10 2
    19    9   49 1
    20   10   11 1
    21   11   12 2
    22   11   13 am
    23   13   14 1
    24   13   50 1
    25   14   19 ar
    26   14   15 ar
    27   15   16 ar
    28   15   51 1
    29   16   17 ar
    30   16   52 1
    31   17   18 ar
    32   17   22 1
    33   18   19 ar
    34   18   53 1
    35   19   20 1
    36   20   21 1
    37   21   54 1
    38   21   55 1
    39   21   56 1
    40   22   26 1
    41   22   23 2
    42   23   24 1
    43   23   57 1
    44   24   25 1
    45   25   30 ar
    46   25   26 ar
    47   26   27 ar
    48   27   28 ar
    49   27   41 1
    50   28   29 ar
    51   28   75 1
    52   29   30 ar
    53   29   58 1
    54   30   31 1
    55   31   32 2
    56   31   59 1
    57   32   33 1
    58   32   60 1
    59   33   34 1
    60   33   61 1
    61   33   62 1
    62   34   39 1
    63   34   35 1
    64   35   36 1
    65   35   63 1
    66   35   64 1
    67   36   37 1
    68   36   65 1
    69   36   66 1
    70   37   38 1
    71   37   40 1
    72   37   67 1
    73   38   39 1
    74   38   68 1
    75   38   69 1
    76   39   70 1
    77   39   71 1
    78   40   72 1
    79   41   73 1
    80   41   74 1
@<TRIPOS>MOLECULE
CHEMBL1086860
   58    63     0     0     0
SMALL
USER_CHARGES

@<TRIPOS>ATOM
      1 C1         -3.1497    0.5992    1.1560 C.3       1 <0>        -0.1101
      2 C2         -2.8889   -0.8720    1.3528 C.ar      1 <0>        -0.1386
      3 C3         -3.6223   -1.8038    0.6435 C.ar      1 <0>        -0.0714
      4 C4         -3.3864   -3.1533    0.8210 C.ar      1 <0>        -0.1393
      5 C5         -2.4101   -3.5780    1.7141 C.ar      1 <0>         0.1678
      6 C6         -1.6719   -2.6451    2.4279 C.ar      1 <0>        -0.1783
      7 C7         -1.9075   -1.2898    2.2431 C.ar      1 <0>         0.1906
      8 N1         -1.1616   -0.3463    2.9558 N.pl3     1 <0>        -0.6332
      9 C8         -0.0675   -0.7471    3.6947 C.2       1 <0>         0.5488
     10 N2          0.4331   -1.9568    3.7028 N.2       1 <0>        -0.5103
     11 C9          1.5047   -2.0039    4.5377 C.ar      1 <0>         0.0757
     12 C10         2.3861   -3.0219    4.9100 C.ar      1 <0>        -0.0784
     13 C11         3.4012   -2.7557    5.8015 C.ar      1 <0>        -0.1113
     14 C12         3.5553   -1.4841    6.3333 C.ar      1 <0>        -0.1097
     15 C13         2.6927   -0.4680    5.9759 C.ar      1 <0>        -0.0860
     16 C14         1.6659   -0.7181    5.0791 C.ar      1 <0>         0.0576
     17 N3          0.6611    0.0624    4.5253 N.pl3     1 <0>        -0.4570
     18 C15         0.4342    1.4154    4.7703 C.ar      1 <0>         0.4245
     19 C16         0.2095    2.2944    3.7173 C.ar      1 <0>        -0.3104
     20 C17        -0.0121    3.6368    4.0144 C.ar      1 <0>         0.4664
     21 N4         -0.0008    4.0267    5.2873 N.ar      1 <0>        -0.5766
     22 C18         0.2160    3.1617    6.2570 C.ar      1 <0>         0.3748
     23 N5          0.4241    1.8833    6.0160 N.ar      1 <0>        -0.5627
     24 N6         -0.2405    4.5533    3.0000 N.pl3     1 <0>        -0.8260
     25 N7         -2.1722   -4.9443    1.8934 N.am      1 <0>        -0.6668
     26 C19        -2.3241   -5.7961    0.8600 C.2       1 <0>         0.5948
     27 O1         -2.5739   -5.3668   -0.2503 O.2       1 <0>        -0.4955
     28 C20        -2.1878   -7.2451    1.0750 C.2       1 <0>        -0.0429
     29 C21        -2.3087   -8.2415    0.1217 C.2       1 <0>        -0.1369
     30 C22        -2.0967   -9.4387    0.8091 C.2       1 <0>         0.0599
     31 N8         -1.8711   -9.1463    2.0645 N.2       1 <0>        -0.2543
     32 N9         -1.9108   -7.8766    2.2542 N.pl3     1 <0>        -0.3765
     33 H1         -1.7685   -7.4339    3.1055 H         1 <0>         0.4451
     34 C23        -2.1232  -10.8218    0.2111 C.3       1 <0>        -0.0794
     35 C24        -2.7715  -10.9841   -1.1652 C.3       1 <0>        -0.1655
     36 C25        -3.4836  -11.5100    0.0827 C.3       1 <0>        -0.1650
     37 H2         -2.5172    0.9760    0.3523 H         1 <0>         0.0723
     38 H3         -4.1972    0.7509    0.8955 H         1 <0>         0.0760
     39 H4         -2.9234    1.1348    2.0780 H         1 <0>         0.0517
     40 H5         -4.3819   -1.4763   -0.0509 H         1 <0>         0.1328
     41 H6         -3.9616   -3.8790    0.2653 H         1 <0>         0.1365
     42 H7         -0.9125   -2.9726    3.1225 H         1 <0>         0.1835
     43 H8         -1.4133    0.5902    2.9308 H         1 <0>         0.4189
     44 H9          2.2714   -4.0146    4.5002 H         1 <0>         0.1319
     45 H10         4.0823   -3.5430    6.0889 H         1 <0>         0.1331
     46 H11         4.3553   -1.2880    7.0319 H         1 <0>         0.1331
     47 H12         2.8175    0.5199    6.3941 H         1 <0>         0.1246
     48 H13         0.2073    1.9455    2.6952 H         1 <0>         0.1457
     49 H14         0.2188    3.5099    7.2794 H         1 <0>         0.2103
     50 H15        -0.2468    4.2614    2.0749 H         1 <0>         0.4156
     51 H16        -0.3941    5.4866    3.2151 H         1 <0>         0.4149
     52 H17        -1.8979   -5.2789    2.7615 H         1 <0>         0.4066
     53 H18        -2.5216   -8.1192   -0.9300 H         1 <0>         0.1671
     54 H19        -1.2613  -11.4490    0.4390 H         1 <0>         0.1218
     55 H20        -3.1789  -10.0906   -1.6381 H         1 <0>         0.0995
     56 H21        -2.3361  -11.7182   -1.8432 H         1 <0>         0.1035
     57 H22        -3.5167  -12.5901    0.2257 H         1 <0>         0.1015
     58 H23        -4.3595  -10.9625    0.4307 H         1 <0>         0.0954
@<TRIPOS>BOND
     1    1    2 1
     2    1   37 1
     3    1   38 1
     4    1   39 1
     5    2    7 ar
     6    2    3 ar
     7    3    4 ar
     8    3   40 1
     9    4    5 ar
    10    4   41 1
    11    5    6 ar
    12    5   25 1
    13    6    7 ar
    14    6   42 1
    15    7    8 1
    16    8    9 1
    17    8   43 1
    18    9   17 1
    19    9   10 2
    20   10   11 1
    21   11   16 ar
    22   11   12 ar
    23   12   13 ar
    24   12   44 1
    25   13   14 ar
    26   13   45 1
    27   14   15 ar
    28   14   46 1
    29   15   16 ar
    30   15   47 1
    31   16   17 1
    32   17   18 1
    33   18   23 ar
    34   18   19 ar
    35   19   20 ar
    36   19   48 1
    37   20   21 ar
    38   20   24 1
    39   21   22 ar
    40   22   23 ar
    41   22   49 1
    42   24   50 1
    43   24   51 1
    44   25   26 am
    45   25   52 1
    46   26   27 2
    47   26   28 1
    48   28   32 1
    49   28   29 2
    50   29   30 1
    51   29   53 1
    52   30   31 2
    53   30   34 1
    54   31   32 1
    55   32   33 1
    56   34   36 1
    57   34   35 1
    58   34   54 1
    59   35   36 1
    60   35   55 1
    61   35   56 1
    62   36   57 1
    63   36   58 1
@<TRIPOS>MOLECULE
CHEMBL1086860__1
   58    63     0     0     0
SMALL
USER_CHARGES

@<TRIPOS>ATOM
      1 C1         -3.3035    0.6141    0.9686 C.3       1 <0>        -0.1087
      2 C2         -3.0105   -0.8436    1.2140 C.ar      1 <0>        -0.1424
      3 C3         -3.7213   -1.8144    0.5347 C.ar      1 <0>        -0.0721
      4 C4         -3.4560   -3.1517    0.7571 C.ar      1 <0>        -0.1414
      5 C5         -2.4724   -3.5249    1.6651 C.ar      1 <0>         0.1722
      6 C6         -1.7565   -2.5528    2.3486 C.ar      1 <0>        -0.1787
      7 C7         -2.0219   -1.2099    2.1190 C.ar      1 <0>         0.1894
      8 N1         -1.2992   -0.2271    2.8017 N.pl3     1 <0>        -0.6332
      9 C8         -0.1950   -0.5782    3.5511 C.2       1 <0>         0.5489
     10 N2          0.3326   -1.7754    3.5985 N.2       1 <0>        -0.5083
     11 C9          1.4065   -1.7703    4.4319 C.ar      1 <0>         0.0769
     12 C10         2.3110   -2.7553    4.8362 C.ar      1 <0>        -0.0775
     13 C11         3.3213   -2.4365    5.7159 C.ar      1 <0>        -0.1123
     14 C12         3.4477   -1.1446    6.2043 C.ar      1 <0>        -0.1107
     15 C13         2.5623   -0.1605    5.8146 C.ar      1 <0>        -0.0864
     16 C14         1.5396   -0.4637    4.9294 C.ar      1 <0>         0.0570
     17 N3          0.5166    0.2750    4.3521 N.pl3     1 <0>        -0.4577
     18 C15         0.2593    1.6299    4.5526 C.ar      1 <0>         0.4254
     19 C16         0.0105    2.4676    3.4717 C.ar      1 <0>        -0.3103
     20 C17        -0.2411    3.8137    3.7247 C.ar      1 <0>         0.4660
     21 N4         -0.2342    4.2464    4.9838 N.ar      1 <0>        -0.5771
     22 C18         0.0061    3.4197    5.9809 C.ar      1 <0>         0.3743
     23 N5          0.2429    2.1390    5.7820 N.ar      1 <0>        -0.5627
     24 N6         -0.4944    4.6901    2.6811 N.pl3     1 <0>        -0.8263
     25 N7         -2.2049   -4.8791    1.8900 N.am      1 <0>        -0.6573
     26 C19        -2.3374   -5.7680    0.8857 C.2       1 <0>         0.6085
     27 O1         -2.5956   -5.3818   -0.2379 O.2       1 <0>        -0.5079
     28 C20        -2.1689   -7.2112    1.1499 C.2       1 <0>        -0.0125
     29 C21        -2.2713   -8.2582    0.2034 C.2       1 <0>        -0.1662
     30 C22        -2.0425   -9.3974    0.8978 C.2       1 <0>         0.0517
     31 N8         -1.8175   -9.0448    2.1818 N.pl3     1 <0>        -0.3759
     32 N9         -1.8889   -7.7686    2.3111 N.2       1 <0>        -0.2521
     33 H1         -1.6254   -9.6655    2.9020 H         1 <0>         0.4447
     34 C23        -2.0393  -10.7980    0.3417 C.3       1 <0>        -0.0909
     35 C24        -2.5372  -11.9212    1.2535 C.3       1 <0>        -0.1723
     36 C25        -1.0448  -11.7940    0.9415 C.3       1 <0>        -0.1719
     37 H2         -2.6778    0.9784    0.1538 H         1 <0>         0.0710
     38 H3         -4.3536    0.7337    0.7017 H         1 <0>         0.0748
     39 H4         -3.0912    1.1847    1.8728 H         1 <0>         0.0508
     40 H5         -4.4862   -1.5270   -0.1715 H         1 <0>         0.1313
     41 H6         -4.0139   -3.9080    0.2250 H         1 <0>         0.1364
     42 H7         -0.9916   -2.8403    3.0547 H         1 <0>         0.1830
     43 H8         -1.5739    0.7017    2.7487 H         1 <0>         0.4182
     44 H9          2.2180   -3.7634    4.4603 H         1 <0>         0.1325
     45 H10         4.0203   -3.1983    6.0281 H         1 <0>         0.1324
     46 H11         4.2439   -0.9073    6.8943 H         1 <0>         0.1324
     47 H12         2.6657    0.8435    6.1987 H         1 <0>         0.1240
     48 H13         0.0126    2.0846    2.4619 H         1 <0>         0.1459
     49 H14         0.0045    3.8020    6.9910 H         1 <0>         0.2099
     50 H15        -0.4973    4.3672    1.7664 H         1 <0>         0.4155
     51 H16        -0.6687    5.6263    2.8655 H         1 <0>         0.4146
     52 H17        -1.9239   -5.1785    2.7688 H         1 <0>         0.4178
     53 H18        -2.4867   -8.1675   -0.8510 H         1 <0>         0.1662
     54 H19        -2.2546  -10.8813   -0.7236 H         1 <0>         0.1356
     55 H20        -2.8670  -11.6471    2.2556 H         1 <0>         0.0940
     56 H21        -3.0803  -12.7438    0.7881 H         1 <0>         0.1086
     57 H22        -0.6060  -12.5328    0.2709 H         1 <0>         0.1087
     58 H23        -0.3928  -11.4362    1.7383 H         1 <0>         0.0943
@<TRIPOS>BOND
     1    1    2 1
     2    1   37 1
     3    1   38 1
     4    1   39 1
     5    2    7 ar
     6    2    3 ar
     7    3    4 ar
     8    3   40 1
     9    4    5 ar
    10    4   41 1
    11    5    6 ar
    12    5   25 1
    13    6    7 ar
    14    6   42 1
    15    7    8 1
    16    8    9 1
    17    8   43 1
    18    9   17 1
    19    9   10 2
    20   10   11 1
    21   11   16 ar
    22   11   12 ar
    23   12   13 ar
    24   12   44 1
    25   13   14 ar
    26   13   45 1
    27   14   15 ar
    28   14   46 1
    29   15   16 ar
    30   15   47 1
    31   16   17 1
    32   17   18 1
    33   18   23 ar
    34   18   19 ar
    35   19   20 ar
    36   19   48 1
    37   20   21 ar
    38   20   24 1
    39   21   22 ar
    40   22   23 ar
    41   22   49 1
    42   24   50 1
    43   24   51 1
    44   25   26 am
    45   25   52 1
    46   26   27 2
    47   26   28 1
    48   28   32 2
    49   28   29 1
    50   29   53 1
    51   29   30 2
    52   30   34 1
    53   30   31 1
    54   31   32 1
    55   31   33 1
    56   34   36 1
    57   34   35 1
    58   34   54 1
    59   35   36 1
    60   35   55 1
    61   35   56 1
    62   36   57 1
    63   36   58 1
@<TRIPOS>MOLECULE
CHEMBL1086731
   63    67     0     0     0
SMALL
USER_CHARGES

@<TRIPOS>ATOM
      1 C1         -3.2983    0.6241    0.9750 C.3       1 <0>        -0.1090
      2 C2         -3.0130   -0.8369    1.2101 C.ar      1 <0>        -0.1416
      3 C3         -3.7319   -1.7990    0.5269 C.ar      1 <0>        -0.0720
      4 C4         -3.4739   -3.1393    0.7398 C.ar      1 <0>        -0.1404
      5 C5         -2.4898   -3.5242    1.6424 C.ar      1 <0>         0.1731
      6 C6         -1.7658   -2.5608    2.3297 C.ar      1 <0>        -0.1794
      7 C7         -2.0236   -1.2149    2.1093 C.ar      1 <0>         0.1898
      8 N1         -1.2928   -0.2408    2.7959 N.pl3     1 <0>        -0.6333
      9 C8         -0.1890   -0.6034    3.5403 C.2       1 <0>         0.5491
     10 N2          0.3308   -1.8043    3.5795 N.2       1 <0>        -0.5092
     11 C9          1.4072   -1.8109    4.4096 C.ar      1 <0>         0.0765
     12 C10         2.3068   -2.8039    4.8052 C.ar      1 <0>        -0.0779
     13 C11         3.3223   -2.4965    5.6830 C.ar      1 <0>        -0.1119
     14 C12         3.4588   -1.2082    6.1781 C.ar      1 <0>        -0.1104
     15 C13         2.5783   -0.2163    5.7970 C.ar      1 <0>        -0.0862
     16 C14         1.5506   -0.5079    4.9138 C.ar      1 <0>         0.0571
     17 N3          0.5304    0.2405    4.3441 N.pl3     1 <0>        -0.4575
     18 C15         0.2826    1.5959    4.5530 C.ar      1 <0>         0.4251
     19 C16         0.0359    2.4413    3.4776 C.ar      1 <0>        -0.3104
     20 C17        -0.2061    3.7875    3.7388 C.ar      1 <0>         0.4661
     21 N4         -0.1925    4.2132    5.0002 N.ar      1 <0>        -0.5769
     22 C18         0.0456    3.3794    5.9920 C.ar      1 <0>         0.3744
     23 N5          0.2734    2.0983    5.7852 N.ar      1 <0>        -0.5627
     24 N6         -0.4569    4.6714    2.7009 N.pl3     1 <0>        -0.8262
     25 N7         -2.2299   -4.8812    1.8580 N.am      1 <0>        -0.6592
     26 C19        -2.3689   -5.7627    0.8480 C.2       1 <0>         0.6073
     27 O1         -2.6266   -5.3672   -0.2738 O.2       1 <0>        -0.5147
     28 C20        -2.2098   -7.1975    1.1006 C.2       1 <0>        -0.2773
     29 C21        -1.9252   -7.8492    2.2912 C.2       1 <0>        -0.0845
     30 C22        -1.8363   -9.2185    2.2156 C.2       1 <0>        -0.1882
     31 C23        -2.0266   -9.8263    1.0185 C.2       1 <0>        -0.1853
     32 S1         -2.3393   -8.5606   -0.0410 S.3       1 <0>         0.2800
     33 C24        -1.9753  -11.3005    0.7101 C.3       1 <0>         0.0130
     34 C25        -3.0326  -12.0321    1.5395 C.3       1 <0>        -0.1379
     35 C26        -2.2528  -11.5202   -0.7784 C.3       1 <0>        -0.1557
     36 C27        -0.5883  -11.8459    1.0562 C.3       1 <0>        -0.1379
     37 H1         -2.6731    0.9898    0.1605 H         1 <0>         0.0713
     38 H2         -4.3484    0.7516    0.7124 H         1 <0>         0.0751
     39 H3         -3.0796    1.1875    1.8821 H         1 <0>         0.0510
     40 H4         -4.4975   -1.5026   -0.1748 H         1 <0>         0.1315
     41 H5         -4.0378   -3.8889    0.2045 H         1 <0>         0.1363
     42 H6         -1.0008   -2.8573    3.0320 H         1 <0>         0.1832
     43 H7         -1.5617    0.6900    2.7491 H         1 <0>         0.4184
     44 H8          2.2060   -3.8093    4.4241 H         1 <0>         0.1324
     45 H9          4.0175   -3.2645    5.9885 H         1 <0>         0.1327
     46 H10         4.2589   -0.9798    6.8665 H         1 <0>         0.1326
     47 H11         2.6895    0.7850    6.1862 H         1 <0>         0.1242
     48 H12         0.0323    2.0639    2.4657 H         1 <0>         0.1458
     49 H13         0.0497    3.7560    7.0042 H         1 <0>         0.2100
     50 H14        -0.4648    4.3536    1.7845 H         1 <0>         0.4155
     51 H15        -0.6246    5.6077    2.8910 H         1 <0>         0.4147
     52 H16        -1.9496   -5.1881    2.7345 H         1 <0>         0.4122
     53 H17        -1.7822   -7.3147    3.2186 H         1 <0>         0.1422
     54 H18        -1.6175   -9.8024    3.0974 H         1 <0>         0.1349
     55 H19        -4.0207  -11.6436    1.2929 H         1 <0>         0.0594
     56 H20        -2.9954  -13.0984    1.3164 H         1 <0>         0.0665
     57 H21        -2.8348  -11.8757    2.5999 H         1 <0>         0.0601
     58 H22        -1.4996  -10.9990   -1.3692 H         1 <0>         0.0631
     59 H23        -2.2157  -12.5865   -1.0014 H         1 <0>         0.0719
     60 H24        -3.2409  -11.1316   -1.0249 H         1 <0>         0.0629
     61 H25        -0.3906  -11.6894    2.1167 H         1 <0>         0.0602
     62 H26        -0.5512  -12.9122    0.8332 H         1 <0>         0.0665
     63 H27         0.1649  -11.3247    0.4654 H         1 <0>         0.0597
@<TRIPOS>BOND
     1    1    2 1
     2    1   37 1
     3    1   38 1
     4    1   39 1
     5    2    7 ar
     6    2    3 ar
     7    3    4 ar
     8    3   40 1
     9    4    5 ar
    10    4   41 1
    11    5    6 ar
    12    5   25 1
    13    6    7 ar
    14    6   42 1
    15    7    8 1
    16    8    9 1
    17    8   43 1
    18    9   17 1
    19    9   10 2
    20   10   11 1
    21   11   16 ar
    22   11   12 ar
    23   12   13 ar
    24   12   44 1
    25   13   14 ar
    26   13   45 1
    27   14   15 ar
    28   14   46 1
    29   15   16 ar
    30   15   47 1
    31   16   17 1
    32   17   18 1
    33   18   23 ar
    34   18   19 ar
    35   19   20 ar
    36   19   48 1
    37   20   21 ar
    38   20   24 1
    39   21   22 ar
    40   22   23 ar
    41   22   49 1
    42   24   50 1
    43   24   51 1
    44   25   26 am
    45   25   52 1
    46   26   27 2
    47   26   28 1
    48   28   32 1
    49   28   29 2
    50   29   30 1
    51   29   53 1
    52   30   31 2
    53   30   54 1
    54   31   32 1
    55   31   33 1
    56   33   34 1
    57   33   35 1
    58   33   36 1
    59   34   55 1
    60   34   56 1
    61   34   57 1
    62   35   58 1
    63   35   59 1
    64   35   60 1
    65   36   61 1
    66   36   62 1
    67   36   63 1
@<TRIPOS>MOLECULE
CHEMBL1086731__1
   64    68     0     0     0
SMALL
USER_CHARGES

@<TRIPOS>ATOM
      1 C1          3.3029   -0.0681    0.3141 C.3       1 <0>        -0.1214
      2 C2          1.9116   -0.5427   -0.0178 C.ar      1 <0>        -0.0815
      3 C3          1.6193   -0.9848   -1.2939 C.ar      1 <0>        -0.0733
      4 C4          0.3452   -1.4202   -1.6024 C.ar      1 <0>        -0.0939
      5 C5         -0.6472   -1.4149   -0.6295 C.ar      1 <0>         0.1798
      6 C6         -0.3570   -0.9721    0.6529 C.ar      1 <0>        -0.1535
      7 C7          0.9256   -0.5406    0.9611 C.ar      1 <0>         0.1002
      8 N1          1.2236   -0.0985    2.2535 N.pl3     1 <0>        -0.6264
      9 C8          0.9882   -0.9215    3.3356 C.cat     1 <0>         0.6512
     10 N2          1.0048   -2.2302    3.3035 N.pl3     1 <0>        -0.5094
     11 C9          0.7328   -2.7225    4.5410 C.ar      1 <0>         0.0581
     12 C10         0.6275   -4.0169    5.0561 C.ar      1 <0>        -0.0780
     13 C11         0.3322   -4.2009    6.3884 C.ar      1 <0>        -0.0766
     14 C12         0.1379   -3.1107    7.2234 C.ar      1 <0>        -0.0741
     15 C13         0.2385   -1.8260    6.7298 C.ar      1 <0>        -0.0656
     16 C14         0.5355   -1.6223    5.3913 C.ar      1 <0>         0.0902
     17 N3          0.7079   -0.4917    4.6055 N.pl3     1 <0>        -0.4035
     18 C15         0.6111    0.8327    5.0284 C.ar      1 <0>         0.4133
     19 C16         0.4466    1.8576    4.1041 C.ar      1 <0>        -0.3217
     20 C17         0.3552    3.1641    4.5771 C.ar      1 <0>         0.4808
     21 N4          0.4282    3.3827    5.8884 N.ar      1 <0>        -0.5645
     22 C18         0.5845    2.3832    6.7322 C.ar      1 <0>         0.3971
     23 N5          0.6695    1.1336    6.3234 N.ar      1 <0>        -0.5644
     24 N6          0.1911    4.2214    3.6959 N.pl3     1 <0>        -0.8152
     25 N7         -1.9370   -1.8550   -0.9429 N.am      1 <0>        -0.6703
     26 C19        -2.1131   -2.8284   -1.8583 C.2       1 <0>         0.6146
     27 O1         -1.1540   -3.4478   -2.2801 O.2       1 <0>        -0.5075
     28 C20        -3.4592   -3.1411   -2.3457 C.2       1 <0>        -0.3020
     29 C21        -4.6701   -2.5582   -2.0035 C.2       1 <0>        -0.0745
     30 C22        -5.7784   -3.0697   -2.6350 C.2       1 <0>        -0.1947
     31 C23        -5.6220   -4.0806   -3.5251 C.2       1 <0>        -0.1703
     32 S1         -3.9662   -4.3646   -3.5391 S.3       1 <0>         0.2964
     33 C24        -6.6888   -4.7845   -4.3235 C.3       1 <0>         0.0097
     34 C25        -7.4128   -3.7710   -5.2121 C.3       1 <0>        -0.1391
     35 C26        -6.0439   -5.8611   -5.1987 C.3       1 <0>        -0.1574
     36 C27        -7.6928   -5.4359   -3.3704 C.3       1 <0>        -0.1386
     37 H1          3.9011   -0.9107    0.6609 H         1 <0>         0.0811
     38 H2          3.7622    0.3616   -0.5761 H         1 <0>         0.0859
     39 H3          3.2516    0.6879    1.0976 H         1 <0>         0.0613
     40 H4          2.3886   -0.9896   -2.0519 H         1 <0>         0.1482
     41 H5          0.1199   -1.7648   -2.6008 H         1 <0>         0.1501
     42 H6         -1.1266   -0.9666    1.4106 H         1 <0>         0.1327
     43 H7          1.5958    0.7869    2.3894 H         1 <0>         0.4430
     44 H8          0.7769   -4.8704    4.4114 H         1 <0>         0.1534
     45 H9          0.2509   -5.2018    6.7861 H         1 <0>         0.1571
     46 H10        -0.0939   -3.2682    8.2664 H         1 <0>         0.1572
     47 H11         0.0858   -0.9810    7.3849 H         1 <0>         0.1619
     48 H12         0.3915    1.6462    3.0464 H         1 <0>         0.1517
     49 H13         0.6401    2.5937    7.7900 H         1 <0>         0.2221
     50 H14         0.1392    4.0540    2.7419 H         1 <0>         0.4184
     51 H15         0.1283    5.1287    4.0332 H         1 <0>         0.4222
     52 H16        -2.7050   -1.4596   -0.5015 H         1 <0>         0.4159
     53 H17        -4.7380   -1.7538   -1.2861 H         1 <0>         0.1398
     54 H18        -6.7604   -2.6722   -2.4249 H         1 <0>         0.1381
     55 H19        -6.6975   -3.3069   -5.8912 H         1 <0>         0.0602
     56 H20        -8.1844   -4.2801   -5.7896 H         1 <0>         0.0703
     57 H21        -7.8722   -3.0040   -4.5886 H         1 <0>         0.0606
     58 H22        -5.5281   -6.5831   -4.5657 H         1 <0>         0.0632
     59 H23        -6.8155   -6.3701   -5.7762 H         1 <0>         0.0758
     60 H24        -5.3286   -5.3969   -5.8778 H         1 <0>         0.0635
     61 H25        -8.1522   -4.6690   -2.7469 H         1 <0>         0.0605
     62 H26        -8.4644   -5.9450   -3.9479 H         1 <0>         0.0703
     63 H27        -7.1770   -6.1580   -2.7373 H         1 <0>         0.0597
     64 H28         1.1836   -2.7672    2.5158 H         1 <0>         0.4617
@<TRIPOS>BOND
     1    1    2 1
     2    1   37 1
     3    1   38 1
     4    1   39 1
     5    2    7 ar
     6    2    3 ar
     7    3    4 ar
     8    3   40 1
     9    4    5 ar
    10    4   41 1
    11    5    6 ar
    12    5   25 1
    13    6    7 ar
    14    6   42 1
    15    7    8 1
    16    8    9 1
    17    8   43 1
    18    9   17 1
    19    9   10 2
    20   10   11 1
    21   10   64 1
    22   11   16 ar
    23   11   12 ar
    24   12   13 ar
    25   12   44 1
    26   13   14 ar
    27   13   45 1
    28   14   15 ar
    29   14   46 1
    30   15   16 ar
    31   15   47 1
    32   16   17 1
    33   17   18 1
    34   18   23 ar
    35   18   19 ar
    36   19   20 ar
    37   19   48 1
    38   20   21 ar
    39   20   24 1
    40   21   22 ar
    41   22   23 ar
    42   22   49 1
    43   24   50 1
    44   24   51 1
    45   25   26 am
    46   25   52 1
    47   26   27 2
    48   26   28 1
    49   28   32 1
    50   28   29 2
    51   29   30 1
    52   29   53 1
    53   30   31 2
    54   30   54 1
    55   31   32 1
    56   31   33 1
    57   33   34 1
    58   33   35 1
    59   33   36 1
    60   34   55 1
    61   34   56 1
    62   34   57 1
    63   35   58 1
    64   35   59 1
    65   35   60 1
    66   36   61 1
    67   36   62 1
    68   36   63 1
@<TRIPOS>MOLECULE
CHEMBL314053
   41    44     0     0     0
SMALL
USER_CHARGES

@<TRIPOS>ATOM
      1 C1         -1.4160    1.1771    0.2224 C.3       1 <0>        -0.1167
      2 C2         -0.7165   -0.1517    0.0957 C.ar      1 <0>        -0.0853
      3 C3         -0.7315   -0.8290   -1.1083 C.ar      1 <0>        -0.1057
      4 C4         -0.0898   -2.0479   -1.2262 C.ar      1 <0>        -0.1073
      5 C5          0.5694   -2.5939   -0.1398 C.ar      1 <0>        -0.1069
      6 C6          0.5884   -1.9219    1.0675 C.ar      1 <0>        -0.0244
      7 C7         -0.0515   -0.6937    1.1873 C.ar      1 <0>         0.1451
      8 N1         -0.0300   -0.0078    2.4065 N.am      1 <0>        -0.6721
      9 C8         -0.4045   -0.6349    3.5391 C.2       1 <0>         0.5612
     10 O1         -0.6640   -1.8229    3.5192 O.2       1 <0>        -0.4970
     11 C9         -0.4996    0.1193    4.8025 C.ar      1 <0>        -0.1315
     12 C10        -0.2085    1.4904    4.8364 C.ar      1 <0>        -0.0713
     13 C11        -0.2900    2.2029    5.9867 C.ar      1 <0>        -0.0770
     14 C12        -0.6741    1.5858    7.2035 C.ar      1 <0>         0.1458
     15 C13        -0.9630    0.2003    7.1436 C.ar      1 <0>        -0.1721
     16 C14        -0.8873   -0.5212    5.9845 C.ar      1 <0>         0.0154
     17 S1         -1.3891   -0.1707    8.8283 S.3       1 <0>         0.0196
     18 C15        -1.1654    1.4770    9.4837 C.2       1 <0>         0.3941
     19 N2         -0.7994    2.1553    8.4178 N.2       1 <0>        -0.5165
     20 N3         -1.3334    1.9237   10.7785 N.pl3     1 <0>        -0.5870
     21 C16        -1.2126    3.2800   11.0681 C.ar      1 <0>         0.3170
     22 C17        -1.4923    3.7480   12.3499 C.ar      1 <0>         0.0287
     23 N4         -1.3766    5.0342   12.6201 N.ar      1 <0>        -0.4076
     24 C18        -0.9956    5.8784   11.6758 C.ar      1 <0>         0.0137
     25 C19        -0.7177    5.4177   10.4029 C.ar      1 <0>         0.0938
     26 N5         -0.8256    4.1293   10.1256 N.ar      1 <0>        -0.4333
     27 Cl1         1.4159   -2.6075    2.4309 Cl        1 <0>        -0.0446
     28 H1         -0.7228    1.9784   -0.0333 H         1 <0>         0.0758
     29 H2         -2.2692    1.2046   -0.4554 H         1 <0>         0.0749
     30 H3         -1.7620    1.3092    1.2476 H         1 <0>         0.0684
     31 H4         -1.2456   -0.4058   -1.9587 H         1 <0>         0.1336
     32 H5         -0.1036   -2.5751   -2.1686 H         1 <0>         0.1348
     33 H6          1.0694   -3.5464   -0.2350 H         1 <0>         0.1366
     34 H7          0.2544    0.9191    2.4366 H         1 <0>         0.4111
     35 H8          0.0875    1.9900    3.9258 H         1 <0>         0.1341
     36 H9         -0.0581    3.2576    5.9760 H         1 <0>         0.1407
     37 H10        -1.1205   -1.5757    5.9823 H         1 <0>         0.1470
     38 H11        -1.5357    1.2927   11.4869 H         1 <0>         0.4436
     39 H12        -1.8038    3.0592   13.1212 H         1 <0>         0.1720
     40 H13        -0.9018    6.9307   11.9001 H         1 <0>         0.1742
     41 H14        -0.4073    6.1104    9.6347 H         1 <0>         0.1755
@<TRIPOS>BOND
     1    1    2 1
     2    1   28 1
     3    1   29 1
     4    1   30 1
     5    2    7 ar
     6    2    3 ar
     7    3    4 ar
     8    3   31 1
     9    4    5 ar
    10    4   32 1
    11    5    6 ar
    12    5   33 1
    13    6    7 ar
    14    6   27 1
    15    7    8 1
    16    8    9 am
    17    8   34 1
    18    9   10 2
    19    9   11 1
    20   11   16 ar
    21   11   12 ar
    22   12   13 ar
    23   12   35 1
    24   13   14 ar
    25   13   36 1
    26   14   19 1
    27   14   15 ar
    28   15   16 ar
    29   15   17 1
    30   16   37 1
    31   17   18 1
    32   18   19 2
    33   18   20 1
    34   20   21 1
    35   20   38 1
    36   21   26 ar
    37   21   22 ar
    38   22   23 ar
    39   22   39 1
    40   23   24 ar
    41   24   25 ar
    42   24   40 1
    43   25   26 ar
    44   25   41 1
@<TRIPOS>MOLECULE
CHEMBL603859
   75    80     0     0     0
SMALL
USER_CHARGES

@<TRIPOS>ATOM
      1 C1         -0.2396    1.3639   -0.1288 C.3       1 <0>        -0.0459
      2 N1         -0.2670   -0.1048   -0.1372 N.4       1 <0>        -0.3883
      3 C2         -1.6590   -0.5687   -0.0688 C.3       1 <0>        -0.0024
      4 C3         -1.6891   -2.0984   -0.0965 C.3       1 <0>         0.0259
      5 N2         -0.9238   -2.6213    1.0440 N.3       1 <0>        -0.5326
      6 C4          0.4660   -2.1449    1.0025 C.3       1 <0>         0.0190
      7 C5          0.4783   -0.6148    1.0212 C.3       1 <0>        -0.0015
      8 C6         -0.9762   -4.0888    1.0848 C.3       1 <0>         0.0563
      9 C7         -0.3880   -4.5837    2.4076 C.3       1 <0>         0.0604
     10 O1         -1.2129   -4.1457    3.4892 O.3       1 <0>        -0.3020
     11 C8         -0.8278   -4.5034    4.7434 C.ar      1 <0>         0.1083
     12 C9          0.3236   -5.2556    4.9283 C.ar      1 <0>        -0.1781
     13 C10         0.6876   -5.6098    6.2072 C.ar      1 <0>        -0.1043
     14 C11        -0.0809   -5.2210    7.3086 C.ar      1 <0>         0.1574
     15 C12        -1.2188   -4.4663    7.1419 C.ar      1 <0>        -0.0757
     16 C13        -1.5773   -4.1148    5.8316 C.ar      1 <0>        -0.1330
     17 C14        -2.1772   -3.9131    8.1745 C.3       1 <0>        -0.0910
     18 C15        -1.6663   -3.9696    9.5984 C.3       1 <0>         0.1276
     19 N3         -1.4276   -5.3529   10.0213 N.pl3     1 <0>        -0.3637
     20 C16        -0.4866   -6.1271    9.5123 C.2       1 <0>         0.3787
     21 C17        -0.5527   -7.3735   10.1119 C.2       1 <0>        -0.2961
     22 C18        -1.6550   -7.2797   11.0827 C.2       1 <0>         0.1694
     23 N4         -2.1419   -6.0604   10.9965 N.2       1 <0>        -0.2668
     24 C19        -2.1271   -8.3553   11.9870 C.ar      1 <0>        -0.0253
     25 C20        -2.1016   -9.6841   11.5650 C.ar      1 <0>        -0.0763
     26 C21        -2.5409  -10.6823   12.4086 C.ar      1 <0>        -0.1370
     27 C22        -3.0087  -10.3655   13.6771 C.ar      1 <0>         0.1036
     28 C23        -3.0353   -9.0432   14.1003 C.ar      1 <0>        -0.1204
     29 C24        -2.5920   -8.0410   13.2634 C.ar      1 <0>        -0.0662
     30 O2         -3.4417  -11.3512   14.5057 O.3       1 <0>        -0.2572
     31 C25        -2.5254  -12.2376   14.9760 C.ar      1 <0>         0.1173
     32 C26        -1.1758  -12.0452   14.7173 C.ar      1 <0>        -0.1938
     33 C27        -0.2464  -12.9478   15.1966 C.ar      1 <0>        -0.0818
     34 C28        -0.6599  -14.0424   15.9332 C.ar      1 <0>        -0.1498
     35 C29        -2.0042  -14.2365   16.1925 C.ar      1 <0>        -0.0826
     36 C30        -2.9372  -13.3336   15.7208 C.ar      1 <0>        -0.1435
     37 C31         0.2945   -8.5383    9.8382 C.2       1 <0>         0.6113
     38 O3          1.3251   -8.7018   10.4645 O.2       1 <0>        -0.5308
     39 N5         -0.0679   -9.4280    8.8929 N.am      1 <0>        -0.8484
     40 N6          0.3827   -5.6577    8.5527 N.pl3     1 <0>        -0.6868
     41 H1          0.7932    1.7083   -0.1808 H         1 <0>         0.1243
     42 H2         -0.7927    1.7425   -0.9883 H         1 <0>         0.1247
     43 H3         -0.6991    1.7306    0.7891 H         1 <0>         0.1234
     44 H4         -2.1155   -0.2130    0.8549 H         1 <0>         0.1384
     45 H5         -2.2142   -0.1788   -0.9220 H         1 <0>         0.1365
     46 H6         -2.7211   -2.4431   -0.0308 H         1 <0>         0.1252
     47 H7         -1.2450   -2.4541   -1.0263 H         1 <0>         0.0610
     48 H8          1.0063   -2.5236    1.8702 H         1 <0>         0.1223
     49 H9          0.9456   -2.5014    0.0909 H         1 <0>         0.0617
     50 H10         1.5077   -0.2592    0.9761 H         1 <0>         0.1357
     51 H11         0.0109   -0.2589    1.9393 H         1 <0>         0.1383
     52 H12        -2.0121   -4.4178    1.0021 H         1 <0>         0.1024
     53 H13        -0.3984   -4.4962    0.2552 H         1 <0>         0.0699
     54 H14        -0.3450   -5.6728    2.4013 H         1 <0>         0.0755
     55 H15         0.6174   -4.1811    2.5314 H         1 <0>         0.0624
     56 H16         0.9237   -5.5581    4.0828 H         1 <0>         0.1316
     57 H17         1.5804   -6.1974    6.3625 H         1 <0>         0.1325
     58 H18        -2.4688   -3.5265    5.6715 H         1 <0>         0.1316
     59 H19        -2.3915   -2.8738    7.9253 H         1 <0>         0.1065
     60 H20        -3.1084   -4.4769    8.1189 H         1 <0>         0.0889
     61 H21        -0.7338   -3.4094    9.6658 H         1 <0>         0.0931
     62 H22        -2.4034   -3.5157   10.2607 H         1 <0>         0.1139
     63 H23        -1.7385   -9.9310   10.5783 H         1 <0>         0.1312
     64 H24        -2.5214  -11.7117   12.0823 H         1 <0>         0.1365
     65 H25        -3.3997   -8.7999   15.0874 H         1 <0>         0.1407
     66 H26        -2.6091   -7.0132   13.5946 H         1 <0>         0.1390
     67 H27        -0.8524  -11.1907   14.1414 H         1 <0>         0.1290
     68 H28         0.8042  -12.7985   14.9954 H         1 <0>         0.1269
     69 H29         0.0683  -14.7473   16.3064 H         1 <0>         0.1264
     70 H30        -2.3246  -15.0925   16.7678 H         1 <0>         0.1326
     71 H31        -3.9866  -13.4830   15.9276 H         1 <0>         0.1333
     72 H32        -0.8893   -9.2977    8.3937 H         1 <0>         0.4017
     73 H33         0.4927  -10.1986    8.7118 H         1 <0>         0.4046
     74 H34         1.3333   -5.6299    8.7436 H         1 <0>         0.4223
     75 H35         0.1588   -0.4441   -0.9867 H         1 <0>         0.4222
@<TRIPOS>BOND
     1    1    2 1
     2    1   41 1
     3    1   42 1
     4    1   43 1
     5    2    7 1
     6    2    3 1
     7    2   75 1
     8    3    4 1
     9    3   44 1
    10    3   45 1
    11    4    5 1
    12    4   46 1
    13    4   47 1
    14    5    6 1
    15    5    8 1
    16    6    7 1
    17    6   48 1
    18    6   49 1
    19    7   50 1
    20    7   51 1
    21    8    9 1
    22    8   52 1
    23    8   53 1
    24    9   10 1
    25    9   54 1
    26    9   55 1
    27   10   11 1
    28   11   16 ar
    29   11   12 ar
    30   12   13 ar
    31   12   56 1
    32   13   14 ar
    33   13   57 1
    34   14   40 1
    35   14   15 ar
    36   15   16 ar
    37   15   17 1
    38   16   58 1
    39   17   18 1
    40   17   59 1
    41   17   60 1
    42   18   19 1
    43   18   61 1
    44   18   62 1
    45   19   23 1
    46   19   20 1
    47   20   21 2
    48   20   40 1
    49   21   22 1
    50   21   37 1
    51   22   23 2
    52   22   24 1
    53   24   29 ar
    54   24   25 ar
    55   25   26 ar
    56   25   63 1
    57   26   27 ar
    58   26   64 1
    59   27   28 ar
    60   27   30 1
    61   28   29 ar
    62   28   65 1
    63   29   66 1
    64   30   31 1
    65   31   36 ar
    66   31   32 ar
    67   32   33 ar
    68   32   67 1
    69   33   34 ar
    70   33   68 1
    71   34   35 ar
    72   34   69 1
    73   35   36 ar
    74   35   70 1
    75   36   71 1
    76   37   38 2
    77   37   39 am
    78   39   72 1
    79   39   73 1
    80   40   74 1
@<TRIPOS>MOLECULE
CHEMBL457099
   57    61     0     0     0
SMALL
USER_CHARGES

@<TRIPOS>ATOM
      1 C1          5.5683   -3.0449   -0.0118 C.3       1 <0>         0.1071
      2 N1          4.1309   -3.3277   -0.0185 N.pl3     1 <0>        -0.7026
      3 C2          3.3321   -2.8771    1.0181 C.ar      1 <0>         0.5676
      4 N2          3.8843   -2.1866    2.0055 N.ar      1 <0>        -0.5722
      5 C3          3.1546   -1.7381    3.0150 C.ar      1 <0>         0.1951
      6 C4          1.7960   -1.9965    3.0352 C.ar      1 <0>        -0.2862
      7 C5          1.2413   -2.7272    1.9803 C.ar      1 <0>         0.2688
      8 N3          2.0356   -3.1421    0.9952 N.ar      1 <0>        -0.5431
      9 C6         -0.2086   -3.0305    1.9559 C.ar      1 <0>        -0.1303
     10 C7         -1.0446   -2.5866    2.9829 C.ar      1 <0>        -0.0132
     11 C8         -2.3928   -2.8955    2.9140 C.ar      1 <0>        -0.2114
     12 C9         -2.8680   -3.6273    1.8415 C.ar      1 <0>         0.1601
     13 N4         -2.0591   -4.0364    0.8832 N.ar      1 <0>        -0.5284
     14 C10        -0.7656   -3.7625    0.8996 C.ar      1 <0>         0.3549
     15 O1          0.0275   -4.1981   -0.1093 O.3       1 <0>        -0.2009
     16 C11        -0.5293   -4.9923   -1.0612 C.ar      1 <0>         0.0876
     17 C12        -0.4860   -6.3616   -0.9306 C.ar      1 <0>        -0.0879
     18 C13        -1.0518   -7.1890   -1.8958 C.ar      1 <0>        -0.1072
     19 C14        -1.6695   -6.6579   -3.0066 C.ar      1 <0>         0.1711
     20 C15        -1.7303   -5.2582   -3.1694 C.ar      1 <0>        -0.0516
     21 C16        -1.1587   -4.4169   -2.1834 C.ar      1 <0>        -0.0283
     22 C17        -1.2247   -3.0231   -2.3449 C.ar      1 <0>        -0.0904
     23 C18        -1.8397   -2.5001   -3.4410 C.ar      1 <0>        -0.1130
     24 C19        -2.4069   -3.3278   -4.4080 C.ar      1 <0>        -0.1083
     25 C20        -2.3517   -4.6829   -4.2896 C.ar      1 <0>        -0.1101
     26 N5         -2.2332   -7.5025   -3.9686 N.am      1 <0>        -0.6766
     27 C21        -2.8086   -8.6620   -3.5933 C.2       1 <0>         0.7045
     28 O2         -2.7718   -9.0100   -2.4288 O.2       1 <0>        -0.5487
     29 N6         -3.4248   -9.4358   -4.5087 N.am      1 <0>        -0.6817
     30 C22        -4.1268  -10.5761   -4.1023 C.ar      1 <0>         0.1602
     31 C23        -4.1418  -11.7076   -4.9073 C.ar      1 <0>        -0.1451
     32 C24        -4.8356  -12.8315   -4.5035 C.ar      1 <0>        -0.1003
     33 C25        -5.5152  -12.8307   -3.2992 C.ar      1 <0>        -0.1338
     34 C26        -5.5021  -11.7056   -2.4953 C.ar      1 <0>        -0.0998
     35 C27        -4.8051  -10.5806   -2.8906 C.ar      1 <0>        -0.1179
     36 H1          6.0206   -3.4821    0.8783 H         1 <0>         0.0587
     37 H2          6.0275   -3.4756   -0.9016 H         1 <0>         0.0752
     38 H3          5.7264   -1.9664   -0.0073 H         1 <0>         0.0587
     39 H4          3.7390   -3.8309   -0.7493 H         1 <0>         0.4158
     40 H5          3.6154   -1.1768    3.8144 H         1 <0>         0.1689
     41 H6          1.1782   -1.6424    3.8472 H         1 <0>         0.1437
     42 H7         -0.6493   -2.0166    3.8107 H         1 <0>         0.1496
     43 H8         -3.0671   -2.5681    3.6915 H         1 <0>         0.1458
     44 H9         -3.9194   -3.8683    1.7876 H         1 <0>         0.1640
     45 H10        -0.0064   -6.7998   -0.0678 H         1 <0>         0.1316
     46 H11        -1.0056   -8.2610   -1.7727 H         1 <0>         0.1494
     47 H12        -0.7900   -2.3697   -1.6030 H         1 <0>         0.1235
     48 H13        -1.8890   -1.4281   -3.5627 H         1 <0>         0.1244
     49 H14        -2.8898   -2.8879   -5.2681 H         1 <0>         0.1256
     50 H15        -2.7952   -5.3123   -5.0470 H         1 <0>         0.1229
     51 H16        -2.2100   -7.2537   -4.9059 H         1 <0>         0.4089
     52 H17        -3.3817   -9.2024   -5.4492 H         1 <0>         0.4086
     53 H18        -3.6118  -11.7086   -5.8484 H         1 <0>         0.1252
     54 H19        -4.8477  -13.7117   -5.1291 H         1 <0>         0.1271
     55 H20        -6.0576  -13.7105   -2.9859 H         1 <0>         0.1242
     56 H21        -6.0342  -11.7079   -1.5555 H         1 <0>         0.1263
     57 H22        -4.7916   -9.7038   -2.2603 H         1 <0>         0.1341
@<TRIPOS>BOND
     1    1    2 1
     2    1   36 1
     3    1   37 1
     4    1   38 1
     5    2    3 1
     6    2   39 1
     7    3    8 ar
     8    3    4 ar
     9    4    5 ar
    10    5    6 ar
    11    5   40 1
    12    6    7 ar
    13    6   41 1
    14    7    8 ar
    15    7    9 1
    16    9   14 ar
    17    9   10 ar
    18   10   11 ar
    19   10   42 1
    20   11   12 ar
    21   11   43 1
    22   12   13 ar
    23   12   44 1
    24   13   14 ar
    25   14   15 1
    26   15   16 1
    27   16   21 ar
    28   16   17 ar
    29   17   18 ar
    30   17   45 1
    31   18   19 ar
    32   18   46 1
    33   19   20 ar
    34   19   26 1
    35   20   25 ar
    36   20   21 ar
    37   21   22 ar
    38   22   23 ar
    39   22   47 1
    40   23   24 ar
    41   23   48 1
    42   24   25 ar
    43   24   49 1
    44   25   50 1
    45   26   27 am
    46   26   51 1
    47   27   28 2
    48   27   29 am
    49   29   30 1
    50   29   52 1
    51   30   35 ar
    52   30   31 ar
    53   31   32 ar
    54   31   53 1
    55   32   33 ar
    56   32   54 1
    57   33   34 ar
    58   33   55 1
    59   34   35 ar
    60   34   56 1
    61   35   57 1
@<TRIPOS>MOLECULE
CHEMBL434369
   62    65     0     0     0
SMALL
USER_CHARGES

@<TRIPOS>ATOM
      1 C1         -0.3946    1.1293    0.0062 C.3       1 <0>        -0.1879
      2 C2         -0.5405   -0.3937    0.0024 C.3       1 <0>        -0.0194
      3 N1          0.1368   -0.9476   -1.1776 N.4       1 <0>        -0.3818
      4 C3          1.5825   -0.7109   -1.0684 C.3       1 <0>        -0.0142
      5 C4          2.2713   -1.1573   -2.3596 C.3       1 <0>        -0.1899
      6 C5         -0.1184   -2.3921   -1.2556 C.3       1 <0>        -0.0266
      7 C6         -1.6102   -2.6343   -1.4943 C.3       1 <0>         0.1075
      8 N2         -1.8647   -4.0750   -1.5721 N.pl3     1 <0>        -0.7122
      9 C7         -3.1528   -4.5407   -1.7850 C.ar      1 <0>         0.4923
     10 C8         -4.2106   -3.6477   -1.9320 C.ar      1 <0>        -0.3655
     11 C9         -5.4861   -4.1620   -2.1444 C.ar      1 <0>         0.5014
     12 N3         -5.6511   -5.4819   -2.1997 N.ar      1 <0>        -0.6067
     13 C10        -4.6218   -6.3004   -2.0556 C.ar      1 <0>         0.6369
     14 N4         -3.3942   -5.8476   -1.8572 N.ar      1 <0>        -0.6154
     15 N5         -4.8349   -7.6749   -2.1197 N.pl3     1 <0>        -0.4314
     16 C11        -3.8880   -8.6483   -1.9859 C.2       1 <0>         0.2925
     17 N6         -4.4359   -9.8220   -2.0996 N.2       1 <0>        -0.4715
     18 C12        -5.7706   -9.6867   -2.3139 C.ar      1 <0>         0.0468
     19 C13        -6.0477   -8.3093   -2.3249 C.ar      1 <0>         0.0589
     20 C14        -7.3470   -7.8656   -2.5210 C.ar      1 <0>        -0.0902
     21 C15        -8.3641   -8.7794   -2.7018 C.ar      1 <0>        -0.1010
     22 C16        -8.0965  -10.1405   -2.6889 C.ar      1 <0>        -0.1162
     23 C17        -6.8118  -10.5987   -2.5030 C.ar      1 <0>        -0.0644
     24 N7         -6.5710   -3.3108   -2.2961 N.pl3     1 <0>        -0.6573
     25 C18        -6.3711   -1.9291   -2.3648 C.ar      1 <0>         0.1499
     26 C19        -6.6678   -1.1285   -1.2700 C.ar      1 <0>        -0.1370
     27 C20        -6.4678    0.2408   -1.3418 C.ar      1 <0>         0.1113
     28 C21        -5.9717    0.8088   -2.5072 C.ar      1 <0>        -0.1343
     29 C22        -5.6773    0.0107   -3.5961 C.ar      1 <0>        -0.0969
     30 C23        -5.8699   -1.3556   -3.5267 C.ar      1 <0>        -0.0860
     31 C24        -5.5420   -2.2237   -4.7141 C.3       1 <0>        -0.1165
     32 O1         -6.7576    1.0273   -0.2721 O.3       1 <0>        -0.4912
     33 H1          0.6545    1.3934    0.1396 H         1 <0>         0.0826
     34 H2         -0.7527    1.5310   -0.9417 H         1 <0>         0.0811
     35 H3         -0.9815    1.5485    0.8234 H         1 <0>         0.1079
     36 H4         -0.0899   -0.8041    0.9061 H         1 <0>         0.1330
     37 H5         -1.5977   -0.6573   -0.0284 H         1 <0>         0.1308
     38 H6          1.7656    0.3514   -0.9075 H         1 <0>         0.1363
     39 H7          1.9814   -1.2797   -0.2285 H         1 <0>         0.1319
     40 H8          3.3271   -0.8896   -2.3195 H         1 <0>         0.1087
     41 H9          2.1742   -2.2375   -2.4685 H         1 <0>         0.0807
     42 H10         1.8031   -0.6629   -3.2108 H         1 <0>         0.0809
     43 H11         0.4551   -2.8185   -2.0786 H         1 <0>         0.1429
     44 H12         0.1814   -2.8651   -0.3205 H         1 <0>         0.1406
     45 H13        -2.1837   -2.2080   -0.6713 H         1 <0>         0.0866
     46 H14        -1.9100   -2.1614   -2.4295 H         1 <0>         0.0878
     47 H15        -1.1318   -4.7029   -1.4746 H         1 <0>         0.4164
     48 H16        -4.0454   -2.5816   -1.8819 H         1 <0>         0.1410
     49 H17        -2.8371   -8.4699   -1.8118 H         1 <0>         0.2237
     50 H18        -7.5619   -6.8073   -2.5317 H         1 <0>         0.1388
     51 H19        -9.3756   -8.4330   -2.8540 H         1 <0>         0.1347
     52 H20        -8.9016  -10.8462   -2.8313 H         1 <0>         0.1359
     53 H21        -6.6111  -11.6599   -2.4929 H         1 <0>         0.1361
     54 H22        -7.4684   -3.6745   -2.3545 H         1 <0>         0.4228
     55 H23        -7.0540   -1.5721   -0.3642 H         1 <0>         0.1362
     56 H24        -5.8158    1.8760   -2.5631 H         1 <0>         0.1356
     57 H25        -5.2921    0.4553   -4.5018 H         1 <0>         0.1353
     58 H26        -6.4203   -2.3117   -5.3535 H         1 <0>         0.0791
     59 H27        -4.7252   -1.7738   -5.2785 H         1 <0>         0.0698
     60 H28        -5.2431   -3.2135   -4.3690 H         1 <0>         0.0639
     61 H29        -6.0172    1.1502    0.3377 H         1 <0>         0.3910
     62 H30        -0.2157   -0.4984   -2.0095 H         1 <0>         0.4244
@<TRIPOS>BOND
     1    1    2 1
     2    1   33 1
     3    1   34 1
     4    1   35 1
     5    2    3 1
     6    2   36 1
     7    2   37 1
     8    3    4 1
     9    3    6 1
    10    3   62 1
    11    4    5 1
    12    4   38 1
    13    4   39 1
    14    5   40 1
    15    5   41 1
    16    5   42 1
    17    6    7 1
    18    6   43 1
    19    6   44 1
    20    7    8 1
    21    7   45 1
    22    7   46 1
    23    8    9 1
    24    8   47 1
    25    9   14 ar
    26    9   10 ar
    27   10   11 ar
    28   10   48 1
    29   11   12 ar
    30   11   24 1
    31   12   13 ar
    32   13   14 ar
    33   13   15 1
    34   15   19 1
    35   15   16 1
    36   16   17 2
    37   16   49 1
    38   17   18 1
    39   18   23 ar
    40   18   19 ar
    41   19   20 ar
    42   20   21 ar
    43   20   50 1
    44   21   22 ar
    45   21   51 1
    46   22   23 ar
    47   22   52 1
    48   23   53 1
    49   24   25 1
    50   24   54 1
    51   25   30 ar
    52   25   26 ar
    53   26   27 ar
    54   26   55 1
    55   27   28 ar
    56   27   32 1
    57   28   29 ar
    58   28   56 1
    59   29   30 ar
    60   29   57 1
    61   30   31 1
    62   31   58 1
    63   31   59 1
    64   31   60 1
    65   32   61 1
@<TRIPOS>MOLECULE
CHEMBL395664
   77    82     0     0     0
SMALL
USER_CHARGES

@<TRIPOS>ATOM
      1 C1         -4.3700   -0.8661    1.0504 C.3       1 <0>         0.0753
      2 N1         -3.3408   -0.1936    0.2537 N.pl3     1 <0>        -0.4496
      3 C2         -3.1520   -0.3423   -1.1001 C.ar      1 <0>         0.1167
      4 C3         -3.7990   -1.0969   -2.0749 C.ar      1 <0>        -0.1334
      5 C4         -3.3716   -1.0371   -3.3823 C.ar      1 <0>        -0.0771
      6 C5         -2.2990   -0.2300   -3.7406 C.ar      1 <0>        -0.1428
      7 C6         -1.6491    0.5186   -2.8031 C.ar      1 <0>        -0.0602
      8 C7         -2.0649    0.4752   -1.4659 C.ar      1 <0>        -0.1214
      9 C8         -1.6136    1.1146   -0.2860 C.2       1 <0>        -0.1240
     10 C9         -2.4041    0.6988    0.7381 C.2       1 <0>         0.0008
     11 C10        -2.2801    1.1277    2.1389 C.2       1 <0>         0.5959
     12 O1         -2.9838    0.6236    2.9941 O.2       1 <0>        -0.5245
     13 N2         -1.3871    2.0792    2.4758 N.am      1 <0>        -0.6493
     14 C11        -1.2658    2.4845    3.8107 C.ar      1 <0>         0.1508
     15 C12        -2.3311    2.3180    4.6854 C.ar      1 <0>        -0.1030
     16 C13        -2.2151    2.7162    6.0011 C.ar      1 <0>        -0.1190
     17 C14        -1.0266    3.2871    6.4555 C.ar      1 <0>        -0.0626
     18 C15         0.0442    3.4550    5.5783 C.ar      1 <0>        -0.1640
     19 C16        -0.0736    3.0495    4.2613 C.ar      1 <0>         0.1096
     20 O2          0.9710    3.2064    3.4051 O.3       1 <0>        -0.3111
     21 C17         2.1618    3.7923    3.9350 C.3       1 <0>         0.0254
     22 C18        -0.9021    3.7153    7.8690 C.2       1 <0>        -0.0415
     23 C19        -0.5895    4.9964    8.1756 C.2       1 <0>        -0.1275
     24 S1         -0.5617    5.0017    9.9582 S.3       1 <0>         0.2041
     25 C20        -0.9661    3.3017   10.2481 C.ar      1 <0>        -0.0590
     26 C21        -1.1204    2.7641    8.9557 C.ar      1 <0>        -0.1316
     27 C22        -1.4585    1.3870    8.8927 C.ar      1 <0>         0.4995
     28 N3         -1.6188    0.6720    9.9872 N.ar      1 <0>        -0.4936
     29 C23        -1.4813    1.1661   11.2054 C.ar      1 <0>         0.1162
     30 C24        -1.1401    2.5058   11.3811 C.ar      1 <0>        -0.0239
     31 C25        -0.9833    3.0739   12.7346 C.2       1 <0>        -0.1191
     32 C26        -1.1524    2.3031   13.8015 C.2       1 <0>        -0.1067
     33 C27        -0.9923    2.8831   15.1831 C.3       1 <0>         0.0792
     34 N4         -2.2089    2.6270   15.9656 N.3       1 <0>        -0.6805
     35 C28        -2.0888    3.1796   17.3214 C.3       1 <0>         0.0740
     36 C29        -1.3839    2.1657   18.2271 C.3       1 <0>        -0.1402
     37 C30        -1.3332    2.7140   19.6548 C.3       1 <0>        -0.0076
     38 N5         -2.6981    2.9430   20.1437 N.4       1 <0>        -0.5062
     39 C31        -3.3558    3.9671   19.3232 C.3       1 <0>        -0.0037
     40 C32        -3.4844    3.4669   17.8828 C.3       1 <0>        -0.1532
     41 N6         -1.6237    0.7829    7.6552 N.pl3     1 <0>        -0.8224
     42 H1         -5.2320   -0.2082    1.1603 H         1 <0>         0.0730
     43 H2         -4.6754   -1.7844    0.5488 H         1 <0>         0.0843
     44 H3         -3.9683   -1.1062    2.0348 H         1 <0>         0.0960
     45 H4         -4.6335   -1.7276   -1.8062 H         1 <0>         0.1240
     46 H5         -3.8749   -1.6236   -4.1367 H         1 <0>         0.1324
     47 H6         -1.9764   -0.1951   -4.7707 H         1 <0>         0.1295
     48 H7         -0.8165    1.1433   -3.0912 H         1 <0>         0.1282
     49 H8         -0.7916    1.8113   -0.2137 H         1 <0>         0.1524
     50 H9         -0.8284    2.4833    1.7936 H         1 <0>         0.4248
     51 H10        -3.2523    1.8764    4.3350 H         1 <0>         0.1708
     52 H11        -3.0453    2.5860    6.6796 H         1 <0>         0.1308
     53 H12         0.9656    3.8969    5.9279 H         1 <0>         0.1426
     54 H13         2.9143    3.8597    3.1494 H         1 <0>         0.1113
     55 H14         1.9391    4.7907    4.3114 H         1 <0>         0.0610
     56 H15         2.5403    3.1734    4.7485 H         1 <0>         0.0584
     57 H16        -0.4018    5.8189    7.5013 H         1 <0>         0.2145
     58 H17        -1.6257    0.5290   12.0654 H         1 <0>         0.2109
     59 H18        -0.7311    4.1170   12.8565 H         1 <0>         0.1382
     60 H19        -1.4046    1.2600   13.6795 H         1 <0>         0.1267
     61 H20        -0.1387    2.4177   15.6759 H         1 <0>         0.0962
     62 H21        -0.8275    3.9580   15.1091 H         1 <0>         0.0506
     63 H22        -3.0240    2.9929   15.4969 H         1 <0>         0.3549
     64 H23        -1.5118    4.1037   17.2886 H         1 <0>         0.0663
     65 H24        -1.9345    1.2249   18.2179 H         1 <0>         0.0981
     66 H25        -0.3695    1.9980   17.8653 H         1 <0>         0.1097
     67 H26        -0.8317    1.9947   20.3022 H         1 <0>         0.1377
     68 H27        -0.7822    3.6545   19.6629 H         1 <0>         0.1302
     69 H28        -3.2223    2.0826   20.0898 H         1 <0>         0.4299
     70 H29        -4.3476    4.1728   19.7258 H         1 <0>         0.1383
     71 H30        -2.7618    4.8809   19.3383 H         1 <0>         0.1314
     72 H31        -3.9713    4.2294   17.2748 H         1 <0>         0.1113
     73 H32        -4.0785    2.5532   17.8664 H         1 <0>         0.0999
     74 H33        -1.0998    1.0821    6.8957 H         1 <0>         0.4412
     75 H34        -2.2631    0.0612    7.5493 H         1 <0>         0.4245
     76 H35        -2.6630    3.2536   21.1030 H         1 <0>         0.4355
     77 H36        -1.8500   -0.2654    9.8944 H         1 <0>         0.4458
@<TRIPOS>BOND
     1    1    2 1
     2    1   42 1
     3    1   43 1
     4    1   44 1
     5    2   10 1
     6    2    3 1
     7    3    8 ar
     8    3    4 ar
     9    4    5 ar
    10    4   45 1
    11    5    6 ar
    12    5   46 1
    13    6    7 ar
    14    6   47 1
    15    7    8 ar
    16    7   48 1
    17    8    9 1
    18    9   10 2
    19    9   49 1
    20   10   11 1
    21   11   12 2
    22   11   13 am
    23   13   14 1
    24   13   50 1
    25   14   19 ar
    26   14   15 ar
    27   15   16 ar
    28   15   51 1
    29   16   17 ar
    30   16   52 1
    31   17   18 ar
    32   17   22 1
    33   18   19 ar
    34   18   53 1
    35   19   20 1
    36   20   21 1
    37   21   54 1
    38   21   55 1
    39   21   56 1
    40   22   26 1
    41   22   23 2
    42   23   24 1
    43   23   57 1
    44   24   25 1
    45   25   30 ar
    46   25   26 ar
    47   26   27 ar
    48   27   28 ar
    49   27   41 1
    50   28   29 ar
    51   28   77 1
    52   29   30 ar
    53   29   58 1
    54   30   31 1
    55   31   32 2
    56   31   59 1
    57   32   33 1
    58   32   60 1
    59   33   34 1
    60   33   61 1
    61   33   62 1
    62   34   35 1
    63   34   63 1
    64   35   40 1
    65   35   36 1
    66   35   64 1
    67   36   37 1
    68   36   65 1
    69   36   66 1
    70   37   38 1
    71   37   67 1
    72   37   68 1
    73   38   39 1
    74   38   69 1
    75   38   76 1
    76   39   40 1
    77   39   70 1
    78   39   71 1
    79   40   72 1
    80   40   73 1
    81   41   74 1
    82   41   75 1
@<TRIPOS>MOLECULE
CHEMBL395664__1
   76    81     0     0     0
SMALL
USER_CHARGES

@<TRIPOS>ATOM
      1 C1         -4.3698   -0.8653    1.0500 C.3       1 <0>         0.0743
      2 N1         -3.3402   -0.1932    0.2535 N.pl3     1 <0>        -0.4488
      3 C2         -3.1513   -0.3421   -1.1003 C.ar      1 <0>         0.1130
      4 C3         -3.7984   -1.0964   -2.0752 C.ar      1 <0>        -0.1311
      5 C4         -3.3708   -1.0369   -3.3825 C.ar      1 <0>        -0.0831
      6 C5         -2.2978   -0.2302   -3.7406 C.ar      1 <0>        -0.1458
      7 C6         -1.6478    0.5182   -2.8031 C.ar      1 <0>        -0.0611
      8 C7         -2.0638    0.4750   -1.4659 C.ar      1 <0>        -0.1192
      9 C8         -1.6124    1.1143   -0.2860 C.2       1 <0>        -0.1320
     10 C9         -2.4033    0.6988    0.7380 C.2       1 <0>         0.0125
     11 C10        -2.2794    1.1277    2.1388 C.2       1 <0>         0.5886
     12 O1         -2.9833    0.6240    2.9939 O.2       1 <0>        -0.5206
     13 N2         -1.3860    2.0790    2.4758 N.am      1 <0>        -0.6463
     14 C11        -1.2649    2.4843    3.8107 C.ar      1 <0>         0.1329
     15 C12        -2.3303    2.3182    4.6852 C.ar      1 <0>        -0.1021
     16 C13        -2.2144    2.7163    6.0010 C.ar      1 <0>        -0.1065
     17 C14        -1.0258    3.2869    6.4555 C.ar      1 <0>        -0.0328
     18 C15         0.0452    3.4544    5.5785 C.ar      1 <0>        -0.1698
     19 C16        -0.0725    3.0489    4.2614 C.ar      1 <0>         0.1030
     20 O2          0.9723    3.2055    3.4054 O.3       1 <0>        -0.3165
     21 C17         2.1632    3.7910    3.9355 C.3       1 <0>         0.0275
     22 C18        -0.9013    3.7152    7.8690 C.2       1 <0>        -0.0393
     23 C19        -0.5884    4.9962    8.1756 C.2       1 <0>        -0.1578
     24 S1         -0.5608    5.0015    9.9582 S.3       1 <0>         0.0674
     25 C20        -0.9657    3.3017   10.2481 C.ar      1 <0>        -0.0421
     26 C21        -1.1200    2.7640    8.9557 C.ar      1 <0>        -0.1805
     27 C22        -1.4585    1.3870    8.8927 C.ar      1 <0>         0.4649
     28 N3         -1.6191    0.6721    9.9872 N.ar      1 <0>        -0.5439
     29 C23        -1.4816    1.1662   11.2054 C.ar      1 <0>         0.1796
     30 C24        -1.1401    2.5058   11.3811 C.ar      1 <0>        -0.1325
     31 C25        -0.9834    3.0739   12.7346 C.2       1 <0>        -0.0746
     32 C26        -1.1528    2.3032   13.8015 C.2       1 <0>        -0.1692
     33 C27        -0.9927    2.8832   15.1832 C.3       1 <0>         0.0929
     34 N4         -2.2095    2.6275   15.9655 N.3       1 <0>        -0.6800
     35 C28        -2.0895    3.1801   17.3213 C.3       1 <0>         0.0735
     36 C29        -1.3850    2.1660   18.2271 C.3       1 <0>        -0.1407
     37 C30        -1.3342    2.7144   19.6547 C.3       1 <0>        -0.0066
     38 N5         -2.6992    2.9438   20.1434 N.4       1 <0>        -0.5056
     39 C31        -3.3565    3.9680   19.3228 C.3       1 <0>        -0.0027
     40 C32        -3.4850    3.4678   17.8824 C.3       1 <0>        -0.1535
     41 N6         -1.6237    0.7829    7.6552 N.pl3     1 <0>        -0.8465
     42 H1         -5.2316   -0.2071    1.1597 H         1 <0>         0.0733
     43 H2         -4.6754   -1.7835    0.5484 H         1 <0>         0.0828
     44 H3         -3.9684   -1.1055    2.0345 H         1 <0>         0.0992
     45 H4         -4.6332   -1.7268   -1.8066 H         1 <0>         0.1227
     46 H5         -3.8741   -1.6233   -4.1369 H         1 <0>         0.1298
     47 H6         -1.9750   -0.1954   -4.7707 H         1 <0>         0.1267
     48 H7         -0.8149    1.1426   -3.0911 H         1 <0>         0.1266
     49 H8         -0.7902    1.8107   -0.2136 H         1 <0>         0.1523
     50 H9         -0.8270    2.4828    1.7937 H         1 <0>         0.4205
     51 H10        -3.2516    1.8768    4.3347 H         1 <0>         0.1653
     52 H11        -3.0447    2.5864    6.6793 H         1 <0>         0.1316
     53 H12         0.9667    3.8960    5.9282 H         1 <0>         0.1375
     54 H13         2.9158    3.8581    3.1499 H         1 <0>         0.1054
     55 H14         1.9407    4.7895    4.3118 H         1 <0>         0.0581
     56 H15         2.5413    3.1720    4.7490 H         1 <0>         0.0573
     57 H16        -0.4004    5.8185    7.5012 H         1 <0>         0.1936
     58 H17        -1.6263    0.5292   12.0655 H         1 <0>         0.1678
     59 H18        -0.7309    4.1169   12.8565 H         1 <0>         0.1156
     60 H19        -1.4053    1.2602   13.6796 H         1 <0>         0.1234
     61 H20        -0.1393    2.4175   15.6761 H         1 <0>         0.0841
     62 H21        -0.8276    3.9580   15.1091 H         1 <0>         0.0407
     63 H22        -3.0245    2.9936   15.4966 H         1 <0>         0.3544
     64 H23        -1.5122    4.1040   17.2885 H         1 <0>         0.0623
     65 H24        -1.9358    1.2254   18.2179 H         1 <0>         0.0976
     66 H25        -0.3705    1.9980   17.8654 H         1 <0>         0.1103
     67 H26        -0.8331    1.9949   20.3023 H         1 <0>         0.1355
     68 H27        -0.7831    3.6547   19.6629 H         1 <0>         0.1289
     69 H28        -3.2236    2.0835   20.0895 H         1 <0>         0.4295
     70 H29        -4.3483    4.1740   19.7253 H         1 <0>         0.1358
     71 H30        -2.7622    4.8816   19.3380 H         1 <0>         0.1300
     72 H31        -3.9717    4.2304   17.2744 H         1 <0>         0.1110
     73 H32        -4.0794    2.5543   17.8660 H         1 <0>         0.0995
     74 H33        -1.0998    1.0821    6.8957 H         1 <0>         0.4127
     75 H34        -2.2631    0.0612    7.5493 H         1 <0>         0.4065
     76 H35        -2.6641    3.2544   21.1028 H         1 <0>         0.4323
@<TRIPOS>BOND
     1    1    2 1
     2    1   42 1
     3    1   43 1
     4    1   44 1
     5    2   10 1
     6    2    3 1
     7    3    8 ar
     8    3    4 ar
     9    4    5 ar
    10    4   45 1
    11    5    6 ar
    12    5   46 1
    13    6    7 ar
    14    6   47 1
    15    7    8 ar
    16    7   48 1
    17    8    9 1
    18    9   10 2
    19    9   49 1
    20   10   11 1
    21   11   12 2
    22   11   13 am
    23   13   14 1
    24   13   50 1
    25   14   19 ar
    26   14   15 ar
    27   15   16 ar
    28   15   51 1
    29   16   17 ar
    30   16   52 1
    31   17   18 ar
    32   17   22 1
    33   18   19 ar
    34   18   53 1
    35   19   20 1
    36   20   21 1
    37   21   54 1
    38   21   55 1
    39   21   56 1
    40   22   26 1
    41   22   23 2
    42   23   24 1
    43   23   57 1
    44   24   25 1
    45   25   30 ar
    46   25   26 ar
    47   26   27 ar
    48   27   28 ar
    49   27   41 1
    50   28   29 ar
    51   29   30 ar
    52   29   58 1
    53   30   31 1
    54   31   32 2
    55   31   59 1
    56   32   33 1
    57   32   60 1
    58   33   34 1
    59   33   61 1
    60   33   62 1
    61   34   35 1
    62   34   63 1
    63   35   40 1
    64   35   36 1
    65   35   64 1
    66   36   37 1
    67   36   65 1
    68   36   66 1
    69   37   38 1
    70   37   67 1
    71   37   68 1
    72   38   39 1
    73   38   69 1
    74   38   76 1
    75   39   40 1
    76   39   70 1
    77   39   71 1
    78   40   72 1
    79   40   73 1
    80   41   74 1
    81   41   75 1
@<TRIPOS>MOLECULE
CHEMBL395662
   77    82     0     0     0
SMALL
USER_CHARGES

@<TRIPOS>ATOM
      1 C1         -4.3700   -0.8661    1.0504 C.3       1 <0>         0.0755
      2 N1         -3.3408   -0.1936    0.2537 N.pl3     1 <0>        -0.4498
      3 C2         -3.1520   -0.3423   -1.1001 C.ar      1 <0>         0.1170
      4 C3         -3.7990   -1.0969   -2.0749 C.ar      1 <0>        -0.1337
      5 C4         -3.3716   -1.0371   -3.3823 C.ar      1 <0>        -0.0767
      6 C5         -2.2990   -0.2300   -3.7406 C.ar      1 <0>        -0.1426
      7 C6         -1.6491    0.5186   -2.8031 C.ar      1 <0>        -0.0601
      8 C7         -2.0649    0.4752   -1.4659 C.ar      1 <0>        -0.1216
      9 C8         -1.6136    1.1146   -0.2860 C.2       1 <0>        -0.1235
     10 C9         -2.4041    0.6988    0.7381 C.2       1 <0>         0.0001
     11 C10        -2.2801    1.1277    2.1389 C.2       1 <0>         0.5963
     12 O1         -2.9838    0.6236    2.9941 O.2       1 <0>        -0.5249
     13 N2         -1.3871    2.0792    2.4758 N.am      1 <0>        -0.6494
     14 C11        -1.2658    2.4845    3.8107 C.ar      1 <0>         0.1517
     15 C12        -2.3311    2.3180    4.6854 C.ar      1 <0>        -0.1033
     16 C13        -2.2151    2.7162    6.0011 C.ar      1 <0>        -0.1194
     17 C14        -1.0266    3.2871    6.4555 C.ar      1 <0>        -0.0641
     18 C15         0.0442    3.4550    5.5783 C.ar      1 <0>        -0.1638
     19 C16        -0.0736    3.0495    4.2613 C.ar      1 <0>         0.1101
     20 O2          0.9710    3.2064    3.4051 O.3       1 <0>        -0.3108
     21 C17         2.1618    3.7923    3.9350 C.3       1 <0>         0.0253
     22 C18        -0.9021    3.7153    7.8690 C.2       1 <0>        -0.0408
     23 C19        -0.5895    4.9964    8.1756 C.2       1 <0>        -0.1267
     24 S1         -0.5617    5.0017    9.9582 S.3       1 <0>         0.2051
     25 C20        -0.9661    3.3017   10.2481 C.ar      1 <0>        -0.0601
     26 C21        -1.1204    2.7641    8.9557 C.ar      1 <0>        -0.1313
     27 C22        -1.4585    1.3870    8.8927 C.ar      1 <0>         0.5012
     28 N3         -1.6188    0.6720    9.9872 N.ar      1 <0>        -0.4948
     29 C23        -1.4813    1.1661   11.2054 C.ar      1 <0>         0.1168
     30 C24        -1.1401    2.5058   11.3811 C.ar      1 <0>        -0.0267
     31 C25        -0.9833    3.0739   12.7346 C.2       1 <0>        -0.1167
     32 C26        -1.1524    2.3031   13.8015 C.2       1 <0>        -0.1086
     33 C27        -0.9923    2.8831   15.1831 C.3       1 <0>         0.0774
     34 N4         -2.2089    2.6270   15.9656 N.3       1 <0>        -0.5378
     35 C28        -3.3549    3.3633   15.4137 C.3       1 <0>         0.0220
     36 C29        -4.6112    3.0237   16.2187 C.3       1 <0>        -0.0033
     37 N5         -4.4045    3.3890   17.6263 N.4       1 <0>        -0.3889
     38 C30        -3.2725    2.6276   18.1705 C.3       1 <0>        -0.0035
     39 C31        -2.0050    2.9639   17.3817 C.3       1 <0>         0.0247
     40 C32        -5.6173    3.0796   18.3954 C.3       1 <0>        -0.0471
     41 N6         -1.6237    0.7829    7.6552 N.pl3     1 <0>        -0.8212
     42 H1         -5.2320   -0.2082    1.1603 H         1 <0>         0.0729
     43 H2         -4.6754   -1.7844    0.5488 H         1 <0>         0.0843
     44 H3         -3.9683   -1.1062    2.0348 H         1 <0>         0.0958
     45 H4         -4.6335   -1.7276   -1.8062 H         1 <0>         0.1241
     46 H5         -3.8749   -1.6236   -4.1367 H         1 <0>         0.1326
     47 H6         -1.9764   -0.1951   -4.7707 H         1 <0>         0.1297
     48 H7         -0.8165    1.1433   -3.0912 H         1 <0>         0.1284
     49 H8         -0.7916    1.8113   -0.2137 H         1 <0>         0.1524
     50 H9         -0.8284    2.4833    1.7936 H         1 <0>         0.4251
     51 H10        -3.2523    1.8764    4.3350 H         1 <0>         0.1709
     52 H11        -3.0453    2.5860    6.6796 H         1 <0>         0.1303
     53 H12         0.9656    3.8969    5.9279 H         1 <0>         0.1428
     54 H13         1.9391    4.7907    4.3114 H         1 <0>         0.0611
     55 H14         2.5403    3.1734    4.7485 H         1 <0>         0.0585
     56 H15         2.9143    3.8597    3.1494 H         1 <0>         0.1118
     57 H16        -0.4018    5.8189    7.5013 H         1 <0>         0.2149
     58 H17        -1.6257    0.5290   12.0654 H         1 <0>         0.2104
     59 H18        -0.7311    4.1170   12.8565 H         1 <0>         0.1389
     60 H19        -1.4046    1.2600   13.6795 H         1 <0>         0.1285
     61 H20        -0.1387    2.4177   15.6759 H         1 <0>         0.1102
     62 H21        -0.8275    3.9580   15.1091 H         1 <0>         0.0608
     63 H22        -3.1624    4.4345   15.4745 H         1 <0>         0.0641
     64 H23        -3.5025    3.0786   14.3719 H         1 <0>         0.1204
     65 H24        -5.4596    3.5798   15.8199 H         1 <0>         0.1367
     66 H25        -4.8111    1.9547   16.1464 H         1 <0>         0.1375
     67 H26        -3.1284    2.8899   19.2186 H         1 <0>         0.1398
     68 H27        -3.4792    1.5606   18.0882 H         1 <0>         0.1389
     69 H28        -1.1678    2.3877   17.7757 H         1 <0>         0.1277
     70 H29        -1.7903    4.0284   17.4750 H         1 <0>         0.0654
     71 H30        -5.8304    2.0130   18.3242 H         1 <0>         0.1241
     72 H31        -5.4641    3.3506   19.4400 H         1 <0>         0.1272
     73 H32        -6.4572    3.6456   17.9925 H         1 <0>         0.1257
     74 H33        -1.0998    1.0821    6.8957 H         1 <0>         0.4419
     75 H34        -2.2631    0.0612    7.5493 H         1 <0>         0.4248
     76 H35        -4.2080    4.3765   17.6919 H         1 <0>         0.4237
     77 H36        -1.8500   -0.2654    9.8944 H         1 <0>         0.4461
@<TRIPOS>BOND
     1    1    2 1
     2    1   42 1
     3    1   43 1
     4    1   44 1
     5    2   10 1
     6    2    3 1
     7    3    8 ar
     8    3    4 ar
     9    4    5 ar
    10    4   45 1
    11    5    6 ar
    12    5   46 1
    13    6    7 ar
    14    6   47 1
    15    7    8 ar
    16    7   48 1
    17    8    9 1
    18    9   10 2
    19    9   49 1
    20   10   11 1
    21   11   12 2
    22   11   13 am
    23   13   14 1
    24   13   50 1
    25   14   19 ar
    26   14   15 ar
    27   15   16 ar
    28   15   51 1
    29   16   17 ar
    30   16   52 1
    31   17   18 ar
    32   17   22 1
    33   18   19 ar
    34   18   53 1
    35   19   20 1
    36   20   21 1
    37   21   54 1
    38   21   55 1
    39   21   56 1
    40   22   26 1
    41   22   23 2
    42   23   24 1
    43   23   57 1
    44   24   25 1
    45   25   30 ar
    46   25   26 ar
    47   26   27 ar
    48   27   28 ar
    49   27   41 1
    50   28   29 ar
    51   28   77 1
    52   29   30 ar
    53   29   58 1
    54   30   31 1
    55   31   32 2
    56   31   59 1
    57   32   33 1
    58   32   60 1
    59   33   34 1
    60   33   61 1
    61   33   62 1
    62   34   39 1
    63   34   35 1
    64   35   36 1
    65   35   63 1
    66   35   64 1
    67   36   37 1
    68   36   65 1
    69   36   66 1
    70   37   38 1
    71   37   40 1
    72   37   76 1
    73   38   39 1
    74   38   67 1
    75   38   68 1
    76   39   69 1
    77   39   70 1
    78   40   71 1
    79   40   72 1
    80   40   73 1
    81   41   74 1
    82   41   75 1
@<TRIPOS>MOLECULE
CHEMBL395662__1
   76    81     0     0     0
SMALL
USER_CHARGES

@<TRIPOS>ATOM
      1 C1         -4.3698   -0.8653    1.0500 C.3       1 <0>         0.0745
      2 N1         -3.3402   -0.1932    0.2535 N.pl3     1 <0>        -0.4490
      3 C2         -3.1513   -0.3421   -1.1003 C.ar      1 <0>         0.1133
      4 C3         -3.7984   -1.0964   -2.0752 C.ar      1 <0>        -0.1314
      5 C4         -3.3708   -1.0369   -3.3825 C.ar      1 <0>        -0.0826
      6 C5         -2.2978   -0.2302   -3.7406 C.ar      1 <0>        -0.1456
      7 C6         -1.6478    0.5182   -2.8031 C.ar      1 <0>        -0.0610
      8 C7         -2.0638    0.4750   -1.4659 C.ar      1 <0>        -0.1193
      9 C8         -1.6124    1.1143   -0.2860 C.2       1 <0>        -0.1314
     10 C9         -2.4033    0.6988    0.7380 C.2       1 <0>         0.0117
     11 C10        -2.2794    1.1277    2.1388 C.2       1 <0>         0.5891
     12 O1         -2.9833    0.6240    2.9939 O.2       1 <0>        -0.5210
     13 N2         -1.3860    2.0790    2.4758 N.am      1 <0>        -0.6465
     14 C11        -1.2649    2.4843    3.8107 C.ar      1 <0>         0.1337
     15 C12        -2.3303    2.3182    4.6852 C.ar      1 <0>        -0.1024
     16 C13        -2.2144    2.7163    6.0010 C.ar      1 <0>        -0.1070
     17 C14        -1.0258    3.2869    6.4555 C.ar      1 <0>        -0.0343
     18 C15         0.0452    3.4544    5.5785 C.ar      1 <0>        -0.1696
     19 C16        -0.0725    3.0489    4.2614 C.ar      1 <0>         0.1035
     20 O2          0.9723    3.2055    3.4054 O.3       1 <0>        -0.3162
     21 C17         2.1632    3.7910    3.9355 C.3       1 <0>         0.0274
     22 C18        -0.9013    3.7152    7.8690 C.2       1 <0>        -0.0388
     23 C19        -0.5884    4.9962    8.1756 C.2       1 <0>        -0.1569
     24 S1         -0.5608    5.0015    9.9582 S.3       1 <0>         0.0680
     25 C20        -0.9657    3.3017   10.2481 C.ar      1 <0>        -0.0419
     26 C21        -1.1200    2.7640    8.9557 C.ar      1 <0>        -0.1803
     27 C22        -1.4585    1.3870    8.8927 C.ar      1 <0>         0.4669
     28 N3         -1.6191    0.6721    9.9872 N.ar      1 <0>        -0.5444
     29 C23        -1.4816    1.1662   11.2054 C.ar      1 <0>         0.1805
     30 C24        -1.1401    2.5058   11.3811 C.ar      1 <0>        -0.1363
     31 C25        -0.9834    3.0739   12.7346 C.2       1 <0>        -0.0713
     32 C26        -1.1528    2.3032   13.8015 C.2       1 <0>        -0.1713
     33 C27        -0.9927    2.8832   15.1832 C.3       1 <0>         0.0908
     34 N4         -2.2095    2.6275   15.9655 N.3       1 <0>        -0.5362
     35 C28        -3.3552    3.3641   15.4133 C.3       1 <0>         0.0237
     36 C29        -4.6117    3.0249   16.2182 C.3       1 <0>        -0.0030
     37 N5         -4.4052    3.3902   17.6258 N.4       1 <0>        -0.3885
     38 C30        -3.2734    2.6284   18.1702 C.3       1 <0>        -0.0024
     39 C31        -2.0057    2.9643   17.3815 C.3       1 <0>         0.0243
     40 C32        -5.6181    3.0811   18.3947 C.3       1 <0>        -0.0459
     41 N6         -1.6237    0.7829    7.6552 N.pl3     1 <0>        -0.8455
     42 H1         -5.2316   -0.2071    1.1597 H         1 <0>         0.0731
     43 H2         -4.6754   -1.7835    0.5484 H         1 <0>         0.0828
     44 H3         -3.9684   -1.1055    2.0345 H         1 <0>         0.0989
     45 H4         -4.6332   -1.7268   -1.8066 H         1 <0>         0.1228
     46 H5         -3.8741   -1.6233   -4.1369 H         1 <0>         0.1299
     47 H6         -1.9750   -0.1954   -4.7707 H         1 <0>         0.1269
     48 H7         -0.8149    1.1426   -3.0911 H         1 <0>         0.1268
     49 H8         -0.7902    1.8107   -0.2136 H         1 <0>         0.1524
     50 H9         -0.8270    2.4828    1.7937 H         1 <0>         0.4207
     51 H10        -3.2516    1.8768    4.3347 H         1 <0>         0.1654
     52 H11        -3.0447    2.5864    6.6793 H         1 <0>         0.1311
     53 H12         0.9667    3.8960    5.9282 H         1 <0>         0.1377
     54 H13         2.9158    3.8581    3.1499 H         1 <0>         0.1058
     55 H14         1.9407    4.7895    4.3118 H         1 <0>         0.0582
     56 H15         2.5413    3.1720    4.7490 H         1 <0>         0.0575
     57 H16        -0.4004    5.8185    7.5012 H         1 <0>         0.1940
     58 H17        -1.6263    0.5292   12.0655 H         1 <0>         0.1673
     59 H18        -0.7309    4.1169   12.8565 H         1 <0>         0.1161
     60 H19        -1.4053    1.2602   13.6796 H         1 <0>         0.1251
     61 H20        -0.1393    2.4175   15.6761 H         1 <0>         0.0983
     62 H21        -0.8276    3.9580   15.1091 H         1 <0>         0.0510
     63 H22        -3.1625    4.4352   15.4742 H         1 <0>         0.0600
     64 H23        -3.5028    3.0794   14.3716 H         1 <0>         0.1259
     65 H24        -5.4600    3.5811   15.8192 H         1 <0>         0.1350
     66 H25        -4.8119    1.9559   16.1459 H         1 <0>         0.1379
     67 H26        -3.1294    2.8908   19.2183 H         1 <0>         0.1355
     68 H27        -3.4804    1.5614   18.0879 H         1 <0>         0.1379
     69 H28        -1.1688    2.3880   17.7757 H         1 <0>         0.1243
     70 H29        -1.7907    4.0288   17.4748 H         1 <0>         0.0604
     71 H30        -5.8315    2.0145   18.3236 H         1 <0>         0.1232
     72 H31        -5.4650    3.3521   19.4393 H         1 <0>         0.1240
     73 H32        -6.4578    3.6473   17.9918 H         1 <0>         0.1239
     74 H33        -1.0998    1.0821    6.8957 H         1 <0>         0.4134
     75 H34        -2.2631    0.0612    7.5493 H         1 <0>         0.4069
     76 H35        -4.2083    4.3776   17.6915 H         1 <0>         0.4221
@<TRIPOS>BOND
     1    1    2 1
     2    1   42 1
     3    1   43 1
     4    1   44 1
     5    2   10 1
     6    2    3 1
     7    3    8 ar
     8    3    4 ar
     9    4    5 ar
    10    4   45 1
    11    5    6 ar
    12    5   46 1
    13    6    7 ar
    14    6   47 1
    15    7    8 ar
    16    7   48 1
    17    8    9 1
    18    9   10 2
    19    9   49 1
    20   10   11 1
    21   11   12 2
    22   11   13 am
    23   13   14 1
    24   13   50 1
    25   14   19 ar
    26   14   15 ar
    27   15   16 ar
    28   15   51 1
    29   16   17 ar
    30   16   52 1
    31   17   18 ar
    32   17   22 1
    33   18   19 ar
    34   18   53 1
    35   19   20 1
    36   20   21 1
    37   21   54 1
    38   21   55 1
    39   21   56 1
    40   22   26 1
    41   22   23 2
    42   23   24 1
    43   23   57 1
    44   24   25 1
    45   25   30 ar
    46   25   26 ar
    47   26   27 ar
    48   27   28 ar
    49   27   41 1
    50   28   29 ar
    51   29   30 ar
    52   29   58 1
    53   30   31 1
    54   31   32 2
    55   31   59 1
    56   32   33 1
    57   32   60 1
    58   33   34 1
    59   33   61 1
    60   33   62 1
    61   34   39 1
    62   34   35 1
    63   35   36 1
    64   35   63 1
    65   35   64 1
    66   36   37 1
    67   36   65 1
    68   36   66 1
    69   37   38 1
    70   37   40 1
    71   37   76 1
    72   38   39 1
    73   38   67 1
    74   38   68 1
    75   39   69 1
    76   39   70 1
    77   40   71 1
    78   40   72 1
    79   40   73 1
    80   41   74 1
    81   41   75 1
@<TRIPOS>MOLECULE
CHEMBL386953
   65    69     0     0     0
SMALL
USER_CHARGES

@<TRIPOS>ATOM
      1 C1         -2.4357   -1.1040    1.4977 C.3       1 <0>        -0.1152
      2 C2         -1.1567   -1.2537    0.7151 C.ar      1 <0>        -0.0861
      3 C3         -1.1590   -1.9324   -0.4883 C.ar      1 <0>        -0.0966
      4 C4          0.0120   -2.0711   -1.2086 C.ar      1 <0>        -0.1344
      5 C5          1.1948   -1.5287   -0.7253 C.ar      1 <0>         0.1121
      6 C6          1.2015   -0.8473    0.4813 C.ar      1 <0>        -0.1375
      7 C7          0.0231   -0.7043    1.2012 C.ar      1 <0>         0.1534
      8 N1          0.0246   -0.0130    2.4161 N.pl3     1 <0>        -0.6603
      9 C8         -0.0593   -0.7115    3.6118 C.ar      1 <0>         0.4961
     10 C9         -0.0351   -2.1032    3.6189 C.ar      1 <0>        -0.3619
     11 C10        -0.1215   -2.7603    4.8426 C.ar      1 <0>         0.4914
     12 N2         -0.2237   -2.0409    5.9581 N.ar      1 <0>        -0.6191
     13 C11        -0.2435   -0.7188    5.9126 C.ar      1 <0>         0.6289
     14 N3         -0.1584   -0.0598    4.7682 N.ar      1 <0>        -0.6120
     15 N4         -0.3520   -0.0014    7.1010 N.pl3     1 <0>        -0.4295
     16 C12        -0.4379   -0.5253    8.3581 C.2       1 <0>         0.2946
     17 N5         -0.5275    0.4310    9.2346 N.2       1 <0>        -0.4766
     18 C13        -0.5055    1.6345    8.6046 C.ar      1 <0>         0.0465
     19 C14        -0.3867    1.3762    7.2286 C.ar      1 <0>         0.0602
     20 C15        -0.3330    2.4297    6.3281 C.ar      1 <0>        -0.0890
     21 C16        -0.3932    3.7287    6.7875 C.ar      1 <0>        -0.1040
     22 C17        -0.5072    3.9894    8.1453 C.ar      1 <0>        -0.1180
     23 C18        -0.5700    2.9561    9.0527 C.ar      1 <0>        -0.0665
     24 N6         -0.1019   -4.1453    4.8992 N.pl3     1 <0>        -0.7103
     25 C19         0.0103   -4.9273    3.6655 C.3       1 <0>         0.1283
     26 C20         0.0091   -6.4191    4.0054 C.3       1 <0>        -0.1304
     27 C21         0.1264   -7.2358    2.7169 C.3       1 <0>         0.0585
     28 N7          0.1252   -8.6681    3.0433 N.3       1 <0>        -0.5391
     29 C22        -1.1724   -9.0813    3.5961 C.3       1 <0>         0.0179
     30 C23        -1.1128  -10.5621    3.9773 C.3       1 <0>        -0.0031
     31 N8         -0.7910  -11.3616    2.7878 N.4       1 <0>        -0.5086
     32 C24         0.5185  -10.9543    2.2617 C.3       1 <0>        -0.0029
     33 C25         0.4725   -9.4768    1.8662 C.3       1 <0>         0.0236
     34 O1          2.3457   -1.6664   -1.4347 O.3       1 <0>        -0.4978
     35 H1         -2.9466   -0.1923    1.1880 H         1 <0>         0.0765
     36 H2         -3.0796   -1.9631    1.3094 H         1 <0>         0.0686
     37 H3         -2.2062   -1.0483    2.5618 H         1 <0>         0.0652
     38 H4         -2.0778   -2.3557   -0.8666 H         1 <0>         0.1334
     39 H5          0.0070   -2.6025   -2.1489 H         1 <0>         0.1338
     40 H6          2.1209   -0.4249    0.8590 H         1 <0>         0.1354
     41 H7          0.0844    0.9552    2.4232 H         1 <0>         0.4202
     42 H8          0.0483   -2.6596    2.6970 H         1 <0>         0.1428
     43 H9         -0.4327   -1.5799    8.5910 H         1 <0>         0.2230
     44 H10        -0.2439    2.2333    5.2699 H         1 <0>         0.1391
     45 H11        -0.3509    4.5484    6.0856 H         1 <0>         0.1332
     46 H12        -0.5530    5.0110    8.4927 H         1 <0>         0.1341
     47 H13        -0.6571    3.1666   10.1084 H         1 <0>         0.1345
     48 H14        -0.1626   -4.5966    5.7557 H         1 <0>         0.4100
     49 H15        -0.8345   -4.7023    3.0146 H         1 <0>         0.0678
     50 H16         0.9395   -4.6714    3.1564 H         1 <0>         0.0710
     51 H17         0.8540   -6.6441    4.6563 H         1 <0>         0.0873
     52 H18        -0.9201   -6.6750    4.5145 H         1 <0>         0.0734
     53 H19        -0.7184   -7.0108    2.0660 H         1 <0>         0.0520
     54 H20         1.0556   -6.9799    2.2078 H         1 <0>         0.0942
     55 H21        -1.3965   -8.4865    4.4816 H         1 <0>         0.1253
     56 H22        -1.9511   -8.9292    2.8487 H         1 <0>         0.0625
     57 H23        -0.3432  -10.7116    4.7346 H         1 <0>         0.1402
     58 H24        -2.0787  -10.8742    4.3744 H         1 <0>         0.1390
     59 H25        -0.7640  -12.3389    3.0369 H         1 <0>         0.4350
     60 H26         1.2797  -11.1018    3.0278 H         1 <0>         0.1403
     61 H27         0.7620  -11.5572    1.3868 H         1 <0>         0.1395
     62 H28        -0.2791   -9.3312    1.0903 H         1 <0>         0.0624
     63 H29         1.4485   -9.1705    1.4896 H         1 <0>         0.1250
     64 H30         2.5067   -0.9515   -2.0657 H         1 <0>         0.3967
     65 H31        -1.4973  -11.2140    2.0825 H         1 <0>         0.4261
@<TRIPOS>BOND
     1    1    2 1
     2    1   35 1
     3    1   36 1
     4    1   37 1
     5    2    7 ar
     6    2    3 ar
     7    3    4 ar
     8    3   38 1
     9    4    5 ar
    10    4   39 1
    11    5    6 ar
    12    5   34 1
    13    6    7 ar
    14    6   40 1
    15    7    8 1
    16    8    9 1
    17    8   41 1
    18    9   14 ar
    19    9   10 ar
    20   10   11 ar
    21   10   42 1
    22   11   12 ar
    23   11   24 1
    24   12   13 ar
    25   13   14 ar
    26   13   15 1
    27   15   19 1
    28   15   16 1
    29   16   17 2
    30   16   43 1
    31   17   18 1
    32   18   23 ar
    33   18   19 ar
    34   19   20 ar
    35   20   21 ar
    36   20   44 1
    37   21   22 ar
    38   21   45 1
    39   22   23 ar
    40   22   46 1
    41   23   47 1
    42   24   25 1
    43   24   48 1
    44   25   26 1
    45   25   49 1
    46   25   50 1
    47   26   27 1
    48   26   51 1
    49   26   52 1
    50   27   28 1
    51   27   53 1
    52   27   54 1
    53   28   33 1
    54   28   29 1
    55   29   30 1
    56   29   55 1
    57   29   56 1
    58   30   31 1
    59   30   57 1
    60   30   58 1
    61   31   32 1
    62   31   59 1
    63   31   65 1
    64   32   33 1
    65   32   60 1
    66   32   61 1
    67   33   62 1
    68   33   63 1
    69   34   64 1
@<TRIPOS>MOLECULE
CHEMBL386953__1
   65    69     0     0     0
SMALL
USER_CHARGES

@<TRIPOS>ATOM
      1 C1         -2.4357   -1.1040    1.4977 C.3       1 <0>        -0.1159
      2 C2         -1.1567   -1.2537    0.7151 C.ar      1 <0>        -0.0862
      3 C3         -1.1590   -1.9324   -0.4883 C.ar      1 <0>        -0.0966
      4 C4          0.0120   -2.0711   -1.2086 C.ar      1 <0>        -0.1340
      5 C5          1.1948   -1.5287   -0.7253 C.ar      1 <0>         0.1123
      6 C6          1.2015   -0.8473    0.4813 C.ar      1 <0>        -0.1379
      7 C7          0.0231   -0.7043    1.2012 C.ar      1 <0>         0.1516
      8 N1          0.0246   -0.0130    2.4161 N.pl3     1 <0>        -0.6589
      9 C8         -0.0593   -0.7115    3.6118 C.ar      1 <0>         0.4983
     10 C9         -0.0351   -2.1032    3.6189 C.ar      1 <0>        -0.3627
     11 C10        -0.1215   -2.7603    4.8426 C.ar      1 <0>         0.4909
     12 N2         -0.2237   -2.0409    5.9581 N.ar      1 <0>        -0.6181
     13 C11        -0.2435   -0.7188    5.9126 C.ar      1 <0>         0.6323
     14 N3         -0.1584   -0.0598    4.7682 N.ar      1 <0>        -0.6095
     15 N4         -0.3520   -0.0014    7.1010 N.pl3     1 <0>        -0.4305
     16 C12        -0.4379   -0.5253    8.3581 C.2       1 <0>         0.2933
     17 N5         -0.5275    0.4310    9.2346 N.2       1 <0>        -0.4741
     18 C13        -0.5055    1.6345    8.6046 C.ar      1 <0>         0.0465
     19 C14        -0.3867    1.3762    7.2286 C.ar      1 <0>         0.0597
     20 C15        -0.3330    2.4297    6.3281 C.ar      1 <0>        -0.0897
     21 C16        -0.3932    3.7287    6.7875 C.ar      1 <0>        -0.1025
     22 C17        -0.5072    3.9894    8.1453 C.ar      1 <0>        -0.1171
     23 C18        -0.5700    2.9561    9.0527 C.ar      1 <0>        -0.0654
     24 N6         -0.1019   -4.1453    4.8992 N.pl3     1 <0>        -0.7146
     25 C19         0.0103   -4.9273    3.6655 C.3       1 <0>         0.1336
     26 C20         0.0091   -6.4191    4.0054 C.3       1 <0>        -0.1633
     27 C21         0.1264   -7.2358    2.7169 C.3       1 <0>        -0.0048
     28 N7          0.1252   -8.6681    3.0433 N.4       1 <0>        -0.3855
     29 C22        -1.1733   -9.0370    3.6223 C.3       1 <0>        -0.0091
     30 C23        -1.1684  -10.5249    3.9798 C.3       1 <0>         0.0290
     31 N8         -0.9103  -11.3160    2.7683 N.3       1 <0>        -0.6903
     32 C24         0.3753  -10.9400    2.1634 C.3       1 <0>         0.0285
     33 C25         0.3577   -9.4487    1.8209 C.3       1 <0>        -0.0036
     34 O1          2.3457   -1.6664   -1.4347 O.3       1 <0>        -0.4984
     35 H1         -2.9466   -0.1923    1.1880 H         1 <0>         0.0774
     36 H2         -3.0796   -1.9631    1.3094 H         1 <0>         0.0694
     37 H3         -2.2062   -1.0483    2.5618 H         1 <0>         0.0646
     38 H4         -2.0778   -2.3557   -0.8666 H         1 <0>         0.1345
     39 H5          0.0070   -2.6025   -2.1489 H         1 <0>         0.1346
     40 H6          2.1209   -0.4249    0.8590 H         1 <0>         0.1354
     41 H7          0.0844    0.9552    2.4232 H         1 <0>         0.4212
     42 H8          0.0483   -2.6596    2.6970 H         1 <0>         0.1429
     43 H9         -0.4327   -1.5799    8.5910 H         1 <0>         0.2230
     44 H10        -0.2439    2.2333    5.2699 H         1 <0>         0.1389
     45 H11        -0.3509    4.5484    6.0856 H         1 <0>         0.1339
     46 H12        -0.5530    5.0110    8.4927 H         1 <0>         0.1350
     47 H13        -0.6571    3.1666   10.1084 H         1 <0>         0.1353
     48 H14        -0.1626   -4.5966    5.7557 H         1 <0>         0.4113
     49 H15        -0.8345   -4.7023    3.0146 H         1 <0>         0.0780
     50 H16         0.9395   -4.6714    3.1564 H         1 <0>         0.0777
     51 H17         0.8540   -6.6441    4.6563 H         1 <0>         0.0974
     52 H18        -0.9201   -6.6750    4.5145 H         1 <0>         0.0975
     53 H19        -0.7184   -7.0108    2.0660 H         1 <0>         0.1360
     54 H20         1.0556   -6.9799    2.2078 H         1 <0>         0.1370
     55 H21        -1.3504   -8.4478    4.5221 H         1 <0>         0.1355
     56 H22        -1.9633   -8.8400    2.8977 H         1 <0>         0.1385
     57 H23        -0.3873  -10.7198    4.7147 H         1 <0>         0.0587
     58 H24        -2.1370  -10.8022    4.3958 H         1 <0>         0.1245
     59 H25        -0.9403  -12.3045    2.9688 H         1 <0>         0.3762
     60 H26         1.1818  -11.1417    2.8683 H         1 <0>         0.0589
     61 H27         0.5329  -11.5201    1.2542 H         1 <0>         0.1252
     62 H28        -0.4402   -9.2496    1.1055 H         1 <0>         0.1383
     63 H29         1.3155   -9.1646    1.3851 H         1 <0>         0.1365
     64 H30         2.5067   -0.9515   -2.0657 H         1 <0>         0.3981
     65 H31         0.8575   -8.8615    3.7099 H         1 <0>         0.4211
@<TRIPOS>BOND
     1    1    2 1
     2    1   35 1
     3    1   36 1
     4    1   37 1
     5    2    7 ar
     6    2    3 ar
     7    3    4 ar
     8    3   38 1
     9    4    5 ar
    10    4   39 1
    11    5    6 ar
    12    5   34 1
    13    6    7 ar
    14    6   40 1
    15    7    8 1
    16    8    9 1
    17    8   41 1
    18    9   14 ar
    19    9   10 ar
    20   10   11 ar
    21   10   42 1
    22   11   12 ar
    23   11   24 1
    24   12   13 ar
    25   13   14 ar
    26   13   15 1
    27   15   19 1
    28   15   16 1
    29   16   17 2
    30   16   43 1
    31   17   18 1
    32   18   23 ar
    33   18   19 ar
    34   19   20 ar
    35   20   21 ar
    36   20   44 1
    37   21   22 ar
    38   21   45 1
    39   22   23 ar
    40   22   46 1
    41   23   47 1
    42   24   25 1
    43   24   48 1
    44   25   26 1
    45   25   49 1
    46   25   50 1
    47   26   27 1
    48   26   51 1
    49   26   52 1
    50   27   28 1
    51   27   53 1
    52   27   54 1
    53   28   33 1
    54   28   29 1
    55   28   65 1
    56   29   30 1
    57   29   55 1
    58   29   56 1
    59   30   31 1
    60   30   57 1
    61   30   58 1
    62   31   32 1
    63   31   59 1
    64   32   33 1
    65   32   60 1
    66   32   61 1
    67   33   62 1
    68   33   63 1
    69   34   64 1
@<TRIPOS>MOLECULE
CHEMBL220544
   65    69     0     0     0
SMALL
USER_CHARGES

@<TRIPOS>ATOM
      1 C1         -2.4357   -1.1040    1.4977 C.3       1 <0>        -0.1156
      2 C2         -1.1567   -1.2537    0.7151 C.ar      1 <0>        -0.0863
      3 C3         -1.1590   -1.9324   -0.4883 C.ar      1 <0>        -0.0980
      4 C4          0.0120   -2.0711   -1.2086 C.ar      1 <0>        -0.1355
      5 C5          1.1948   -1.5287   -0.7253 C.ar      1 <0>         0.1131
      6 C6          1.2015   -0.8473    0.4813 C.ar      1 <0>        -0.1369
      7 C7          0.0231   -0.7043    1.2012 C.ar      1 <0>         0.1550
      8 N1          0.0246   -0.0130    2.4161 N.pl3     1 <0>        -0.6609
      9 C8         -0.0593   -0.7115    3.6118 C.ar      1 <0>         0.4967
     10 C9         -0.0351   -2.1032    3.6189 C.ar      1 <0>        -0.3620
     11 C10        -0.1215   -2.7603    4.8426 C.ar      1 <0>         0.4933
     12 N2         -0.2237   -2.0409    5.9581 N.ar      1 <0>        -0.6181
     13 C11        -0.2435   -0.7188    5.9126 C.ar      1 <0>         0.6311
     14 N3         -0.1584   -0.0598    4.7682 N.ar      1 <0>        -0.6110
     15 N4         -0.3520   -0.0014    7.1010 N.pl3     1 <0>        -0.4301
     16 C12        -0.4379   -0.5253    8.3581 C.2       1 <0>         0.2945
     17 N5         -0.5275    0.4310    9.2346 N.2       1 <0>        -0.4753
     18 C13        -0.5055    1.6345    8.6046 C.ar      1 <0>         0.0467
     19 C14        -0.3867    1.3762    7.2286 C.ar      1 <0>         0.0598
     20 C15        -0.3330    2.4297    6.3281 C.ar      1 <0>        -0.0894
     21 C16        -0.3932    3.7287    6.7875 C.ar      1 <0>        -0.1035
     22 C17        -0.5072    3.9894    8.1453 C.ar      1 <0>        -0.1177
     23 C18        -0.5700    2.9561    9.0527 C.ar      1 <0>        -0.0659
     24 N6         -0.1019   -4.1453    4.8992 N.pl3     1 <0>        -0.7121
     25 C19         0.0103   -4.9273    3.6655 C.3       1 <0>         0.1308
     26 C20         0.0091   -6.4191    4.0054 C.3       1 <0>         0.0439
     27 N7          0.1217   -7.2032    2.7683 N.3       1 <0>        -0.5345
     28 C21        -1.0748   -7.0400    1.9305 C.3       1 <0>         0.0178
     29 C22        -0.8927   -7.8229    0.6284 C.3       1 <0>        -0.0027
     30 N8         -0.6798   -9.2432    0.9365 N.4       1 <0>        -0.3887
     31 C23         0.5320   -9.3926    1.7530 C.3       1 <0>        -0.0027
     32 C24         0.3618   -8.6227    3.0645 C.3       1 <0>         0.0267
     33 C25        -0.5231   -9.9972   -0.3144 C.3       1 <0>        -0.0462
     34 O1          2.3457   -1.6664   -1.4347 O.3       1 <0>        -0.4982
     35 H1         -2.9466   -0.1923    1.1880 H         1 <0>         0.0770
     36 H2         -3.0796   -1.9631    1.3094 H         1 <0>         0.0680
     37 H3         -2.2062   -1.0483    2.5618 H         1 <0>         0.0654
     38 H4         -2.0778   -2.3557   -0.8666 H         1 <0>         0.1327
     39 H5          0.0070   -2.6025   -2.1489 H         1 <0>         0.1330
     40 H6          2.1209   -0.4249    0.8590 H         1 <0>         0.1357
     41 H7          0.0844    0.9552    2.4232 H         1 <0>         0.4207
     42 H8          0.0483   -2.6596    2.6970 H         1 <0>         0.1425
     43 H9         -0.4327   -1.5799    8.5910 H         1 <0>         0.2234
     44 H10        -0.2439    2.2333    5.2699 H         1 <0>         0.1389
     45 H11        -0.3509    4.5484    6.0856 H         1 <0>         0.1334
     46 H12        -0.5530    5.0110    8.4927 H         1 <0>         0.1345
     47 H13        -0.6571    3.1666   10.1084 H         1 <0>         0.1349
     48 H14        -0.1626   -4.5966    5.7557 H         1 <0>         0.4110
     49 H15        -0.8345   -4.7023    3.0146 H         1 <0>         0.0663
     50 H16         0.9395   -4.6714    3.1564 H         1 <0>         0.0807
     51 H17         0.8540   -6.6441    4.6563 H         1 <0>         0.0993
     52 H18        -0.9201   -6.6750    4.5145 H         1 <0>         0.0578
     53 H19        -1.9466   -7.4188    2.4638 H         1 <0>         0.0641
     54 H20        -1.2179   -5.9837    1.7027 H         1 <0>         0.1255
     55 H21        -1.7849   -7.7147    0.0116 H         1 <0>         0.1371
     56 H22        -0.0288   -7.4348    0.0888 H         1 <0>         0.1393
     57 H23         0.6961  -10.4481    1.9700 H         1 <0>         0.1378
     58 H24         1.3886   -8.9964    1.2076 H         1 <0>         0.1391
     59 H25         1.2668   -8.7211    3.6640 H         1 <0>         0.1262
     60 H26        -0.4864   -9.0276    3.6164 H         1 <0>         0.0636
     61 H27         0.3349   -9.6124   -0.8656 H         1 <0>         0.1238
     62 H28        -0.3652  -11.0513   -0.0860 H         1 <0>         0.1250
     63 H29        -1.4229   -9.8876   -0.9199 H         1 <0>         0.1247
     64 H30         2.5067   -0.9515   -2.0657 H         1 <0>         0.3975
     65 H31        -1.4745   -9.5994    1.4462 H         1 <0>         0.4228
@<TRIPOS>BOND
     1    1    2 1
     2    1   35 1
     3    1   36 1
     4    1   37 1
     5    2    7 ar
     6    2    3 ar
     7    3    4 ar
     8    3   38 1
     9    4    5 ar
    10    4   39 1
    11    5    6 ar
    12    5   34 1
    13    6    7 ar
    14    6   40 1
    15    7    8 1
    16    8    9 1
    17    8   41 1
    18    9   14 ar
    19    9   10 ar
    20   10   11 ar
    21   10   42 1
    22   11   12 ar
    23   11   24 1
    24   12   13 ar
    25   13   14 ar
    26   13   15 1
    27   15   19 1
    28   15   16 1
    29   16   17 2
    30   16   43 1
    31   17   18 1
    32   18   23 ar
    33   18   19 ar
    34   19   20 ar
    35   20   21 ar
    36   20   44 1
    37   21   22 ar
    38   21   45 1
    39   22   23 ar
    40   22   46 1
    41   23   47 1
    42   24   25 1
    43   24   48 1
    44   25   26 1
    45   25   49 1
    46   25   50 1
    47   26   27 1
    48   26   51 1
    49   26   52 1
    50   27   32 1
    51   27   28 1
    52   28   29 1
    53   28   53 1
    54   28   54 1
    55   29   30 1
    56   29   55 1
    57   29   56 1
    58   30   31 1
    59   30   33 1
    60   30   65 1
    61   31   32 1
    62   31   57 1
    63   31   58 1
    64   32   59 1
    65   32   60 1
    66   33   61 1
    67   33   62 1
    68   33   63 1
    69   34   64 1
@<TRIPOS>MOLECULE
CHEMBL220544__1
   65    69     0     0     0
SMALL
USER_CHARGES

@<TRIPOS>ATOM
      1 C1         -2.4357   -1.1040    1.4977 C.3       1 <0>        -0.1167
      2 C2         -1.1567   -1.2537    0.7151 C.ar      1 <0>        -0.0870
      3 C3         -1.1590   -1.9324   -0.4883 C.ar      1 <0>        -0.0977
      4 C4          0.0120   -2.0711   -1.2086 C.ar      1 <0>        -0.1345
      5 C5          1.1948   -1.5287   -0.7253 C.ar      1 <0>         0.1129
      6 C6          1.2015   -0.8473    0.4813 C.ar      1 <0>        -0.1379
      7 C7          0.0231   -0.7043    1.2012 C.ar      1 <0>         0.1507
      8 N1          0.0246   -0.0130    2.4161 N.pl3     1 <0>        -0.6577
      9 C8         -0.0593   -0.7115    3.6118 C.ar      1 <0>         0.5010
     10 C9         -0.0351   -2.1032    3.6189 C.ar      1 <0>        -0.3647
     11 C10        -0.1215   -2.7603    4.8426 C.ar      1 <0>         0.4924
     12 N2         -0.2237   -2.0409    5.9581 N.ar      1 <0>        -0.6148
     13 C11        -0.2435   -0.7188    5.9126 C.ar      1 <0>         0.6364
     14 N3         -0.1584   -0.0598    4.7682 N.ar      1 <0>        -0.6068
     15 N4         -0.3520   -0.0014    7.1010 N.pl3     1 <0>        -0.4313
     16 C12        -0.4379   -0.5253    8.3581 C.2       1 <0>         0.2928
     17 N5         -0.5275    0.4310    9.2346 N.2       1 <0>        -0.4717
     18 C13        -0.5055    1.6345    8.6046 C.ar      1 <0>         0.0469
     19 C14        -0.3867    1.3762    7.2286 C.ar      1 <0>         0.0589
     20 C15        -0.3330    2.4297    6.3281 C.ar      1 <0>        -0.0902
     21 C16        -0.3932    3.7287    6.7875 C.ar      1 <0>        -0.1013
     22 C17        -0.5072    3.9894    8.1453 C.ar      1 <0>        -0.1164
     23 C18        -0.5700    2.9561    9.0527 C.ar      1 <0>        -0.0644
     24 N6         -0.1019   -4.1453    4.8992 N.pl3     1 <0>        -0.7117
     25 C19         0.0103   -4.9273    3.6655 C.3       1 <0>         0.1065
     26 C20         0.0091   -6.4191    4.0054 C.3       1 <0>        -0.0202
     27 N7          0.1217   -7.2032    2.7683 N.4       1 <0>        -0.3827
     28 C21        -1.0747   -6.9900    1.9432 C.3       1 <0>        -0.0099
     29 C22        -0.9494   -7.7919    0.6459 C.3       1 <0>         0.0251
     30 N8         -0.8028   -9.2186    0.9675 N.3       1 <0>        -0.5433
     31 C23         0.3772   -9.4443    1.8141 C.3       1 <0>         0.0239
     32 C24         0.2410   -8.6288    3.1017 C.3       1 <0>        -0.0011
     33 C25        -0.7363  -10.0297   -0.2555 C.3       1 <0>         0.0191
     34 O1          2.3457   -1.6664   -1.4347 O.3       1 <0>        -0.4987
     35 H1         -2.9466   -0.1923    1.1880 H         1 <0>         0.0786
     36 H2         -3.0796   -1.9631    1.3094 H         1 <0>         0.0696
     37 H3         -2.2062   -1.0483    2.5618 H         1 <0>         0.0645
     38 H4         -2.0778   -2.3557   -0.8666 H         1 <0>         0.1351
     39 H5          0.0070   -2.6025   -2.1489 H         1 <0>         0.1350
     40 H6          2.1209   -0.4249    0.8590 H         1 <0>         0.1360
     41 H7          0.0844    0.9552    2.4232 H         1 <0>         0.4224
     42 H8          0.0483   -2.6596    2.6970 H         1 <0>         0.1415
     43 H9         -0.4327   -1.5799    8.5910 H         1 <0>         0.2238
     44 H10        -0.2439    2.2333    5.2699 H         1 <0>         0.1386
     45 H11        -0.3509    4.5484    6.0856 H         1 <0>         0.1344
     46 H12        -0.5530    5.0110    8.4927 H         1 <0>         0.1357
     47 H13        -0.6571    3.1666   10.1084 H         1 <0>         0.1361
     48 H14        -0.1626   -4.5966    5.7557 H         1 <0>         0.4167
     49 H15        -0.8345   -4.7023    3.0146 H         1 <0>         0.0878
     50 H16         0.9395   -4.6714    3.1564 H         1 <0>         0.0876
     51 H17         0.8540   -6.6441    4.6563 H         1 <0>         0.1424
     52 H18        -0.9201   -6.6750    4.5145 H         1 <0>         0.1422
     53 H19        -1.9573   -7.3205    2.4908 H         1 <0>         0.1415
     54 H20        -1.1692   -5.9300    1.7074 H         1 <0>         0.1365
     55 H21        -1.8437   -7.6457    0.0402 H         1 <0>         0.1253
     56 H22        -0.0745   -7.4523    0.0915 H         1 <0>         0.0623
     57 H23         0.4508  -10.5035    2.0605 H         1 <0>         0.1261
     58 H24         1.2739   -9.1319    1.2789 H         1 <0>         0.0620
     59 H25         1.1218   -8.7837    3.7248 H         1 <0>         0.1386
     60 H26        -0.6484   -8.9508    3.6434 H         1 <0>         0.1406
     61 H27         0.1197   -9.7164   -0.8531 H         1 <0>         0.0404
     62 H28        -0.6279  -11.0810    0.0112 H         1 <0>         0.0846
     63 H29        -1.6513   -9.8936   -0.8320 H         1 <0>         0.0850
     64 H30         2.5067   -0.9515   -2.0657 H         1 <0>         0.3996
     65 H31         0.9397   -6.9081    2.2565 H         1 <0>         0.4233
@<TRIPOS>BOND
     1    1    2 1
     2    1   35 1
     3    1   36 1
     4    1   37 1
     5    2    7 ar
     6    2    3 ar
     7    3    4 ar
     8    3   38 1
     9    4    5 ar
    10    4   39 1
    11    5    6 ar
    12    5   34 1
    13    6    7 ar
    14    6   40 1
    15    7    8 1
    16    8    9 1
    17    8   41 1
    18    9   14 ar
    19    9   10 ar
    20   10   11 ar
    21   10   42 1
    22   11   12 ar
    23   11   24 1
    24   12   13 ar
    25   13   14 ar
    26   13   15 1
    27   15   19 1
    28   15   16 1
    29   16   17 2
    30   16   43 1
    31   17   18 1
    32   18   23 ar
    33   18   19 ar
    34   19   20 ar
    35   20   21 ar
    36   20   44 1
    37   21   22 ar
    38   21   45 1
    39   22   23 ar
    40   22   46 1
    41   23   47 1
    42   24   25 1
    43   24   48 1
    44   25   26 1
    45   25   49 1
    46   25   50 1
    47   26   27 1
    48   26   51 1
    49   26   52 1
    50   27   32 1
    51   27   28 1
    52   27   65 1
    53   28   29 1
    54   28   53 1
    55   28   54 1
    56   29   30 1
    57   29   55 1
    58   29   56 1
    59   30   31 1
    60   30   33 1
    61   31   32 1
    62   31   57 1
    63   31   58 1
    64   32   59 1
    65   32   60 1
    66   33   61 1
    67   33   62 1
    68   33   63 1
    69   34   64 1
@<TRIPOS>MOLECULE
CHEMBL565509
   62    66     0     0     0
SMALL
USER_CHARGES

@<TRIPOS>ATOM
      1 C1         -0.0187    1.5258    0.0104 C.3       1 <0>        -0.1702
      2 C2          0.0021   -0.0041    0.0020 C.3       1 <0>         0.1676
      3 C3         -1.4333   -0.5336    0.0129 C.3       1 <0>        -0.1123
      4 C4         -2.1373   -0.1280   -1.2841 C.3       1 <0>        -0.1133
      5 C5         -3.5626   -0.6852   -1.2886 C.3       1 <0>        -0.1352
      6 C6         -4.3418   -0.0931   -0.1100 C.3       1 <0>         0.1094
      7 N1         -3.5959   -0.3539    1.1287 N.am      1 <0>        -0.5925
      8 C7         -2.1883    0.0601    1.2063 C.3       1 <0>         0.1269
      9 C8         -4.1917   -0.9610    2.1742 C.2       1 <0>         0.6501
     10 O1         -3.5640   -1.1710    3.1932 O.2       1 <0>        -0.5696
     11 O2         -5.4824   -1.3346    2.0895 O.3       1 <0>        -0.3569
     12 C9         -6.0496   -1.9729    3.2353 C.3       1 <0>         0.1280
     13 C10        -7.4903   -2.3165    2.9573 C.ar      1 <0>        -0.1005
     14 C11        -8.4874   -1.4054    3.2519 C.ar      1 <0>        -0.0935
     15 C12        -9.8090   -1.7206    2.9968 C.ar      1 <0>        -0.1229
     16 C13       -10.1334   -2.9466    2.4468 C.ar      1 <0>        -0.1071
     17 C14        -9.1363   -3.8573    2.1515 C.ar      1 <0>        -0.1229
     18 C15        -7.8143   -3.5404    2.4025 C.ar      1 <0>        -0.0937
     19 N2          0.7106   -0.4894    1.1889 N.pl3     1 <0>        -0.6905
     20 C16         2.0899   -0.6028    1.1733 C.ar      1 <0>         0.6017
     21 N3          2.7537   -0.2628    0.0781 N.ar      1 <0>        -0.5744
     22 C17         4.0735   -0.3573    0.0259 C.ar      1 <0>         0.2227
     23 C18         4.7625   -0.8178    1.1328 C.ar      1 <0>        -0.3082
     24 C19         4.0362   -1.1679    2.2704 C.ar      1 <0>         0.4503
     25 N4          2.7139   -1.0433    2.2552 N.ar      1 <0>        -0.5919
     26 N5          4.6887   -1.6371    3.4087 N.pl3     1 <0>        -0.4406
     27 C20         6.0345   -1.8020    3.5603 C.2       1 <0>         0.2745
     28 N6          6.2968   -2.2577    4.7497 N.2       1 <0>        -0.4710
     29 C21         5.1407   -2.4177    5.4450 C.ar      1 <0>         0.0423
     30 C22         4.0931   -2.0174    4.5985 C.ar      1 <0>         0.0569
     31 C23         2.7819   -2.0676    5.0477 C.ar      1 <0>        -0.0893
     32 C24         2.5111   -2.5080    6.3263 C.ar      1 <0>        -0.1026
     33 C25         3.5418   -2.9011    7.1674 C.ar      1 <0>        -0.1195
     34 C26         4.8486   -2.8654    6.7357 C.ar      1 <0>        -0.0667
     35 H1          1.0039    1.9031    0.0027 H         1 <0>         0.0644
     36 H2         -0.5459    1.8868   -0.8726 H         1 <0>         0.0727
     37 H3         -0.5289    1.8773    0.9072 H         1 <0>         0.0596
     38 H4          0.5123   -0.3556   -0.8948 H         1 <0>         0.1011
     39 H5         -1.4195   -1.6204    0.0953 H         1 <0>         0.0846
     40 H6         -2.1721    0.9592   -1.3536 H         1 <0>         0.0746
     41 H7         -1.5880   -0.5287   -2.1360 H         1 <0>         0.0743
     42 H8         -4.0556   -0.4157   -2.2227 H         1 <0>         0.0830
     43 H9         -3.5293   -1.7706   -1.1942 H         1 <0>         0.0690
     44 H10        -4.4541    0.9821   -0.2494 H         1 <0>         0.0734
     45 H11        -5.3247   -0.5606   -0.0500 H         1 <0>         0.0944
     46 H12        -1.7503   -0.3062    2.1347 H         1 <0>         0.0933
     47 H13        -2.1251    1.1478    1.1742 H         1 <0>         0.0822
     48 H14        -5.4945   -2.8848    3.4553 H         1 <0>         0.0777
     49 H15        -5.9952   -1.2993    4.0906 H         1 <0>         0.0781
     50 H16        -8.2339   -0.4476    3.6815 H         1 <0>         0.1245
     51 H17       -10.5880   -1.0091    3.2276 H         1 <0>         0.1264
     52 H18       -11.1660   -3.1931    2.2483 H         1 <0>         0.1254
     53 H19        -9.3898   -4.8153    1.7221 H         1 <0>         0.1263
     54 H20        -7.0350   -4.2505    2.1683 H         1 <0>         0.1242
     55 H21         0.2131   -0.7312    1.9857 H         1 <0>         0.4140
     56 H22         4.6058   -0.0781   -0.8713 H         1 <0>         0.1791
     57 H23         5.8389   -0.9048    1.1164 H         1 <0>         0.1509
     58 H24         6.7738   -1.5859    2.8033 H         1 <0>         0.2230
     59 H25         1.9750   -1.7623    4.3980 H         1 <0>         0.1385
     60 H26         1.4897   -2.5467    6.6752 H         1 <0>         0.1334
     61 H27         3.3169   -3.2437    8.1666 H         1 <0>         0.1334
     62 H28         5.6460   -3.1719    7.3963 H         1 <0>         0.1335
@<TRIPOS>BOND
     1    1    2 1
     2    1   35 1
     3    1   36 1
     4    1   37 1
     5    2    3 1
     6    2   19 1
     7    2   38 1
     8    3    8 1
     9    3    4 1
    10    3   39 1
    11    4    5 1
    12    4   40 1
    13    4   41 1
    14    5    6 1
    15    5   42 1
    16    5   43 1
    17    6    7 1
    18    6   44 1
    19    6   45 1
    20    7    8 1
    21    7    9 am
    22    8   46 1
    23    8   47 1
    24    9   10 2
    25    9   11 1
    26   11   12 1
    27   12   13 1
    28   12   48 1
    29   12   49 1
    30   13   18 ar
    31   13   14 ar
    32   14   15 ar
    33   14   50 1
    34   15   16 ar
    35   15   51 1
    36   16   17 ar
    37   16   52 1
    38   17   18 ar
    39   17   53 1
    40   18   54 1
    41   19   20 1
    42   19   55 1
    43   20   25 ar
    44   20   21 ar
    45   21   22 ar
    46   22   23 ar
    47   22   56 1
    48   23   24 ar
    49   23   57 1
    50   24   25 ar
    51   24   26 1
    52   26   30 1
    53   26   27 1
    54   27   28 2
    55   27   58 1
    56   28   29 1
    57   29   34 ar
    58   29   30 ar
    59   30   31 ar
    60   31   32 ar
    61   31   59 1
    62   32   33 ar
    63   32   60 1
    64   33   34 ar
    65   33   61 1
    66   34   62 1
@<TRIPOS>MOLECULE
CHEMBL565509__1
   62    66     0     0     0
SMALL
USER_CHARGES

@<TRIPOS>ATOM
      1 C1         -0.0187    1.5258    0.0104 C.3       1 <0>        -0.1639
      2 C2          0.0021   -0.0041    0.0020 C.3       1 <0>         0.1670
      3 C3         -1.4333   -0.5336    0.0129 C.3       1 <0>        -0.1118
      4 C4         -2.1729   -0.0303   -1.2288 C.3       1 <0>        -0.1142
      5 C5         -3.6183   -0.5325   -1.2023 C.3       1 <0>        -0.1347
      6 C6         -3.6230   -2.0642   -1.2245 C.3       1 <0>         0.1089
      7 N1         -2.7930   -2.5558   -0.1162 N.am      1 <0>        -0.5931
      8 C7         -1.4132   -2.0654    0.0045 C.3       1 <0>         0.1335
      9 C8         -3.2880   -3.4394    0.7730 C.2       1 <0>         0.6500
     10 O1         -2.5914   -3.8383    1.6852 O.2       1 <0>        -0.5691
     11 O2         -4.5543   -3.8800    0.6505 O.3       1 <0>        -0.3571
     12 C9         -5.0131   -4.8156    1.6284 C.3       1 <0>         0.1280
     13 C10        -6.4417   -5.1923    1.3318 C.ar      1 <0>        -0.1003
     14 C11        -7.4778   -4.4577    1.8774 C.ar      1 <0>        -0.0936
     15 C12        -8.7883   -4.8033    1.6053 C.ar      1 <0>        -0.1229
     16 C13        -9.0627   -5.8832    0.7872 C.ar      1 <0>        -0.1072
     17 C14        -8.0266   -6.6173    0.2408 C.ar      1 <0>        -0.1228
     18 C15        -6.7161   -6.2691    0.5095 C.ar      1 <0>        -0.0937
     19 N2          0.7106   -0.4894    1.1889 N.pl3     1 <0>        -0.6899
     20 C16         2.0899   -0.6028    1.1733 C.ar      1 <0>         0.6020
     21 N3          2.7537   -0.2628    0.0781 N.ar      1 <0>        -0.5745
     22 C17         4.0735   -0.3573    0.0259 C.ar      1 <0>         0.2226
     23 C18         4.7625   -0.8178    1.1328 C.ar      1 <0>        -0.3082
     24 C19         4.0362   -1.1679    2.2704 C.ar      1 <0>         0.4504
     25 N4          2.7139   -1.0433    2.2552 N.ar      1 <0>        -0.5914
     26 N5          4.6887   -1.6371    3.4087 N.pl3     1 <0>        -0.4405
     27 C20         6.0345   -1.8020    3.5603 C.2       1 <0>         0.2746
     28 N6          6.2968   -2.2577    4.7497 N.2       1 <0>        -0.4711
     29 C21         5.1407   -2.4177    5.4450 C.ar      1 <0>         0.0424
     30 C22         4.0931   -2.0174    4.5985 C.ar      1 <0>         0.0571
     31 C23         2.7819   -2.0676    5.0477 C.ar      1 <0>        -0.0888
     32 C24         2.5111   -2.5080    6.3263 C.ar      1 <0>        -0.1029
     33 C25         3.5418   -2.9011    7.1674 C.ar      1 <0>        -0.1196
     34 C26         4.8486   -2.8654    6.7357 C.ar      1 <0>        -0.0667
     35 H1          1.0039    1.9031    0.0027 H         1 <0>         0.0638
     36 H2         -0.5459    1.8868   -0.8726 H         1 <0>         0.0724
     37 H3         -0.5289    1.8773    0.9072 H         1 <0>         0.0564
     38 H4          0.5123   -0.3556   -0.8948 H         1 <0>         0.0987
     39 H5         -1.9443   -0.1814    0.9090 H         1 <0>         0.0837
     40 H6         -2.1672    1.0596   -1.2380 H         1 <0>         0.0777
     41 H7         -1.6752   -0.4034   -2.1240 H         1 <0>         0.0719
     42 H8         -4.1092   -0.1803   -0.2950 H         1 <0>         0.0692
     43 H9         -4.1509   -0.1543   -2.0749 H         1 <0>         0.0828
     44 H10        -4.6436   -2.4283   -1.1060 H         1 <0>         0.0942
     45 H11        -3.2145   -2.4172   -2.1714 H         1 <0>         0.0728
     46 H12        -0.8246   -2.4185   -0.8422 H         1 <0>         0.0739
     47 H13        -0.9758   -2.4302    0.9338 H         1 <0>         0.0965
     48 H14        -4.3882   -5.7082    1.5985 H         1 <0>         0.0777
     49 H15        -4.9545   -4.3641    2.6188 H         1 <0>         0.0777
     50 H16        -7.2635   -3.6139    2.5166 H         1 <0>         0.1242
     51 H17        -9.5978   -4.2298    2.0322 H         1 <0>         0.1263
     52 H18       -10.0866   -6.1537    0.5752 H         1 <0>         0.1254
     53 H19        -8.2410   -7.4613   -0.3981 H         1 <0>         0.1264
     54 H20        -5.9066   -6.8404    0.0796 H         1 <0>         0.1244
     55 H21         0.2131   -0.7312    1.9857 H         1 <0>         0.4144
     56 H22         4.6058   -0.0781   -0.8713 H         1 <0>         0.1789
     57 H23         5.8389   -0.9048    1.1164 H         1 <0>         0.1507
     58 H24         6.7738   -1.5859    2.8033 H         1 <0>         0.2230
     59 H25         1.9750   -1.7623    4.3980 H         1 <0>         0.1385
     60 H26         1.4897   -2.5467    6.6752 H         1 <0>         0.1330
     61 H27         3.3169   -3.2437    8.1666 H         1 <0>         0.1333
     62 H28         5.6460   -3.1719    7.3963 H         1 <0>         0.1335
@<TRIPOS>BOND
     1    1    2 1
     2    1   35 1
     3    1   36 1
     4    1   37 1
     5    2    3 1
     6    2   19 1
     7    2   38 1
     8    3    8 1
     9    3    4 1
    10    3   39 1
    11    4    5 1
    12    4   40 1
    13    4   41 1
    14    5    6 1
    15    5   42 1
    16    5   43 1
    17    6    7 1
    18    6   44 1
    19    6   45 1
    20    7    8 1
    21    7    9 am
    22    8   46 1
    23    8   47 1
    24    9   10 2
    25    9   11 1
    26   11   12 1
    27   12   13 1
    28   12   48 1
    29   12   49 1
    30   13   18 ar
    31   13   14 ar
    32   14   15 ar
    33   14   50 1
    34   15   16 ar
    35   15   51 1
    36   16   17 ar
    37   16   52 1
    38   17   18 ar
    39   17   53 1
    40   18   54 1
    41   19   20 1
    42   19   55 1
    43   20   25 ar
    44   20   21 ar
    45   21   22 ar
    46   22   23 ar
    47   22   56 1
    48   23   24 ar
    49   23   57 1
    50   24   25 ar
    51   24   26 1
    52   26   30 1
    53   26   27 1
    54   27   28 2
    55   27   58 1
    56   28   29 1
    57   29   34 ar
    58   29   30 ar
    59   30   31 ar
    60   31   32 ar
    61   31   59 1
    62   32   33 ar
    63   32   60 1
    64   33   34 ar
    65   33   61 1
    66   34   62 1
@<TRIPOS>MOLECULE
CHEMBL565509__2
   62    66     0     0     0
SMALL
USER_CHARGES

@<TRIPOS>ATOM
      1 C1         -0.0187    1.5258    0.0104 C.3       1 <0>        -0.1639
      2 C2          0.0021   -0.0041    0.0020 C.3       1 <0>         0.1669
      3 C3          0.7421   -0.5109    1.2415 C.3       1 <0>        -0.1117
      4 C4          2.1792    0.0152    1.2292 C.3       1 <0>        -0.1141
      5 C5          2.9105   -0.4642    2.4852 C.3       1 <0>        -0.1347
      6 C6          2.9562   -1.9954    2.4915 C.3       1 <0>         0.1089
      7 N1          1.5865   -2.5100    2.3573 N.am      1 <0>        -0.5931
      8 C7          0.7632   -2.0427    1.2337 C.3       1 <0>         0.1335
      9 C8          1.0949   -3.3942    3.2478 C.2       1 <0>         0.6500
     10 O1         -0.0395   -3.8123    3.1258 O.2       1 <0>        -0.5691
     11 O2          1.8606   -3.8142    4.2724 O.3       1 <0>        -0.3571
     12 C9          1.2752   -4.7519    5.1780 C.3       1 <0>         0.1280
     13 C10         2.2729   -5.1039    6.2511 C.ar      1 <0>        -0.1003
     14 C11         3.1396   -6.1651    6.0678 C.ar      1 <0>        -0.0937
     15 C12         4.0548   -6.4881    7.0521 C.ar      1 <0>        -0.1228
     16 C13         4.1037   -5.7496    8.2197 C.ar      1 <0>        -0.1072
     17 C14         3.2376   -4.6878    8.4026 C.ar      1 <0>        -0.1229
     18 C15         2.3253   -4.3622    7.4165 C.ar      1 <0>        -0.0937
     19 N2         -1.3723   -0.5112    0.0124 N.pl3     1 <0>        -0.6899
     20 C16        -2.0691   -0.6463   -1.1758 C.ar      1 <0>         0.6020
     21 N3         -1.4755   -0.3173   -2.3138 N.ar      1 <0>        -0.5745
     22 C17        -2.1101   -0.4334   -3.4702 C.ar      1 <0>         0.2227
     23 C18        -3.4099   -0.9051   -3.4836 C.ar      1 <0>        -0.3082
     24 C19        -4.0076   -1.2430   -2.2700 C.ar      1 <0>         0.4504
     25 N4         -3.3107   -1.1063   -1.1475 N.ar      1 <0>        -0.5914
     26 N5         -5.3157   -1.7219   -2.2357 N.pl3     1 <0>        -0.4405
     27 C20        -6.1340   -1.9190   -3.3094 C.2       1 <0>         0.2745
     28 N6         -7.2859   -2.3754   -2.9144 N.2       1 <0>        -0.4711
     29 C21        -7.2893   -2.5036   -1.5619 C.ar      1 <0>         0.0424
     30 C22        -6.0252   -2.0921   -1.1068 C.ar      1 <0>         0.0571
     31 C23        -5.7341   -2.1207    0.2490 C.ar      1 <0>        -0.0888
     32 C24        -6.6866   -2.5562    1.1462 C.ar      1 <0>        -0.1029
     33 C25        -7.9350   -2.9669    0.7019 C.ar      1 <0>        -0.1196
     34 C26        -8.2441   -2.9377   -0.6392 C.ar      1 <0>        -0.0667
     35 H1          1.0039    1.9031    0.0027 H         1 <0>         0.0724
     36 H2         -0.5459    1.8868   -0.8726 H         1 <0>         0.0636
     37 H3         -0.5289    1.8773    0.9072 H         1 <0>         0.0564
     38 H4          0.5123   -0.3556   -0.8948 H         1 <0>         0.0988
     39 H5          0.2329   -0.1587    2.1386 H         1 <0>         0.0837
     40 H6          2.6948   -0.3577    0.3442 H         1 <0>         0.0719
     41 H7          2.1668    1.1049    1.2099 H         1 <0>         0.0777
     42 H8          3.9266   -0.0699    2.4873 H         1 <0>         0.0828
     43 H9          2.3814   -0.1124    3.3709 H         1 <0>         0.0692
     44 H10         3.5618   -2.3463    1.6559 H         1 <0>         0.0728
     45 H11         3.3873   -2.3443    3.4299 H         1 <0>         0.0942
     46 H12        -0.2526   -2.4227    1.3422 H         1 <0>         0.0965
     47 H13         1.1900   -2.3974    0.2956 H         1 <0>         0.0739
     48 H14         0.3898   -4.3106    5.6358 H         1 <0>         0.0777
     49 H15         0.9923   -5.6536    4.6349 H         1 <0>         0.0777
     50 H16         3.1014   -6.7421    5.1556 H         1 <0>         0.1244
     51 H17         4.7314   -7.3176    6.9092 H         1 <0>         0.1264
     52 H18         4.8182   -6.0024    8.9890 H         1 <0>         0.1254
     53 H19         3.2755   -4.1111    9.3149 H         1 <0>         0.1263
     54 H20         1.6511   -3.5304    7.5578 H         1 <0>         0.1242
     55 H21        -1.7940   -0.7522    0.8520 H         1 <0>         0.4144
     56 H22        -1.6181   -0.1625   -4.3926 H         1 <0>         0.1789
     57 H23        -3.9500   -1.0090   -4.4130 H         1 <0>         0.1507
     58 H24        -5.8648   -1.7242   -4.3370 H         1 <0>         0.2230
     59 H25        -4.7638   -1.8030    0.6011 H         1 <0>         0.1385
     60 H26        -6.4590   -2.5781    2.2017 H         1 <0>         0.1330
     61 H27        -8.6723   -3.3062    1.4144 H         1 <0>         0.1333
     62 H28        -9.2177   -3.2599   -0.9780 H         1 <0>         0.1335
@<TRIPOS>BOND
     1    1    2 1
     2    1   35 1
     3    1   36 1
     4    1   37 1
     5    2    3 1
     6    2   19 1
     7    2   38 1
     8    3    8 1
     9    3    4 1
    10    3   39 1
    11    4    5 1
    12    4   40 1
    13    4   41 1
    14    5    6 1
    15    5   42 1
    16    5   43 1
    17    6    7 1
    18    6   44 1
    19    6   45 1
    20    7    8 1
    21    7    9 am
    22    8   46 1
    23    8   47 1
    24    9   10 2
    25    9   11 1
    26   11   12 1
    27   12   13 1
    28   12   48 1
    29   12   49 1
    30   13   18 ar
    31   13   14 ar
    32   14   15 ar
    33   14   50 1
    34   15   16 ar
    35   15   51 1
    36   16   17 ar
    37   16   52 1
    38   17   18 ar
    39   17   53 1
    40   18   54 1
    41   19   20 1
    42   19   55 1
    43   20   25 ar
    44   20   21 ar
    45   21   22 ar
    46   22   23 ar
    47   22   56 1
    48   23   24 ar
    49   23   57 1
    50   24   25 ar
    51   24   26 1
    52   26   30 1
    53   26   27 1
    54   27   28 2
    55   27   58 1
    56   28   29 1
    57   29   34 ar
    58   29   30 ar
    59   30   31 ar
    60   31   32 ar
    61   31   59 1
    62   32   33 ar
    63   32   60 1
    64   33   34 ar
    65   33   61 1
    66   34   62 1
@<TRIPOS>MOLECULE
CHEMBL565509__3
   62    66     0     0     0
SMALL
USER_CHARGES

@<TRIPOS>ATOM
      1 C1         -0.0187    1.5258    0.0104 C.3       1 <0>        -0.1699
      2 C2          0.0021   -0.0041    0.0020 C.3       1 <0>         0.1674
      3 C3          0.7421   -0.5109    1.2415 C.3       1 <0>        -0.1120
      4 C4          2.1768    0.0218    1.2334 C.3       1 <0>        -0.1139
      5 C5          2.9276   -0.5113    2.4557 C.3       1 <0>        -0.1353
      6 C6          2.2358   -0.0176    3.7303 C.3       1 <0>         0.1094
      7 N1          0.8185   -0.4013    3.6780 N.am      1 <0>        -0.5922
      8 C7          0.0255   -0.0172    2.5023 C.3       1 <0>         0.1273
      9 C8          0.2567   -1.0929    4.6892 C.2       1 <0>         0.6501
     10 O1         -0.9166   -1.4043    4.6341 O.2       1 <0>        -0.5695
     11 O2          0.9953   -1.4387    5.7604 O.3       1 <0>        -0.3568
     12 C9          0.3350   -2.1710    6.7947 C.3       1 <0>         0.1280
     13 C10         1.3123   -2.4670    7.9031 C.ar      1 <0>        -0.1005
     14 C11         2.0626   -3.6276    7.8713 C.ar      1 <0>        -0.0936
     15 C12         2.9590   -3.8991    8.8879 C.ar      1 <0>        -0.1229
     16 C13         3.1055   -3.0098    9.9361 C.ar      1 <0>        -0.1071
     17 C14         2.3558   -1.8488    9.9674 C.ar      1 <0>        -0.1229
     18 C15         1.4625   -1.5752    8.9486 C.ar      1 <0>        -0.0936
     19 N2         -1.3723   -0.5112    0.0124 N.pl3     1 <0>        -0.6908
     20 C16        -2.0691   -0.6463   -1.1758 C.ar      1 <0>         0.6016
     21 N3         -1.4755   -0.3173   -2.3138 N.ar      1 <0>        -0.5744
     22 C17        -2.1101   -0.4334   -3.4702 C.ar      1 <0>         0.2227
     23 C18        -3.4099   -0.9051   -3.4836 C.ar      1 <0>        -0.3082
     24 C19        -4.0076   -1.2430   -2.2700 C.ar      1 <0>         0.4503
     25 N4         -3.3107   -1.1063   -1.1475 N.ar      1 <0>        -0.5918
     26 N5         -5.3157   -1.7219   -2.2357 N.pl3     1 <0>        -0.4406
     27 C20        -6.1340   -1.9190   -3.3094 C.2       1 <0>         0.2744
     28 N6         -7.2859   -2.3754   -2.9144 N.2       1 <0>        -0.4710
     29 C21        -7.2893   -2.5036   -1.5619 C.ar      1 <0>         0.0423
     30 C22        -6.0252   -2.0921   -1.1068 C.ar      1 <0>         0.0569
     31 C23        -5.7341   -2.1207    0.2490 C.ar      1 <0>        -0.0892
     32 C24        -6.6866   -2.5562    1.1462 C.ar      1 <0>        -0.1025
     33 C25        -7.9350   -2.9669    0.7019 C.ar      1 <0>        -0.1195
     34 C26        -8.2441   -2.9377   -0.6392 C.ar      1 <0>        -0.0667
     35 H1          1.0039    1.9031    0.0027 H         1 <0>         0.0734
     36 H2         -0.5459    1.8868   -0.8726 H         1 <0>         0.0640
     37 H3         -0.5289    1.8773    0.9072 H         1 <0>         0.0589
     38 H4          0.5123   -0.3556   -0.8948 H         1 <0>         0.1012
     39 H5          0.7581   -1.6008    1.2354 H         1 <0>         0.0845
     40 H6          2.6813   -0.3078    0.3251 H         1 <0>         0.0745
     41 H7          2.1598    1.1112    1.2642 H         1 <0>         0.0753
     42 H8          2.9236   -1.6011    2.4384 H         1 <0>         0.0690
     43 H9          3.9560   -0.1505    2.4369 H         1 <0>         0.0831
     44 H10         2.7060   -0.4738    4.6014 H         1 <0>         0.0945
     45 H11         2.3185    1.0674    3.7941 H         1 <0>         0.0734
     46 H12        -0.0721    1.0678    2.4660 H         1 <0>         0.0813
     47 H13        -0.9627   -0.4732    2.5632 H         1 <0>         0.0930
     48 H14        -0.4918   -1.5793    7.1878 H         1 <0>         0.0781
     49 H15        -0.0487   -3.1071    6.3890 H         1 <0>         0.0777
     50 H16         1.9482   -4.3223    7.0524 H         1 <0>         0.1242
     51 H17         3.5447   -4.8062    8.8635 H         1 <0>         0.1263
     52 H18         3.8053   -3.2223   10.7308 H         1 <0>         0.1254
     53 H19         2.4700   -1.1542   10.7865 H         1 <0>         0.1264
     54 H20         0.8795   -0.6664    8.9711 H         1 <0>         0.1245
     55 H21        -1.7940   -0.7522    0.8520 H         1 <0>         0.4138
     56 H22        -1.6181   -0.1625   -4.3926 H         1 <0>         0.1791
     57 H23        -3.9500   -1.0090   -4.4130 H         1 <0>         0.1508
     58 H24        -5.8648   -1.7242   -4.3370 H         1 <0>         0.2230
     59 H25        -4.7638   -1.8030    0.6011 H         1 <0>         0.1385
     60 H26        -6.4590   -2.5781    2.2017 H         1 <0>         0.1335
     61 H27        -8.6723   -3.3062    1.4144 H         1 <0>         0.1334
     62 H28        -9.2177   -3.2599   -0.9780 H         1 <0>         0.1335
@<TRIPOS>BOND
     1    1    2 1
     2    1   35 1
     3    1   36 1
     4    1   37 1
     5    2    3 1
     6    2   19 1
     7    2   38 1
     8    3    8 1
     9    3    4 1
    10    3   39 1
    11    4    5 1
    12    4   40 1
    13    4   41 1
    14    5    6 1
    15    5   42 1
    16    5   43 1
    17    6    7 1
    18    6   44 1
    19    6   45 1
    20    7    8 1
    21    7    9 am
    22    8   46 1
    23    8   47 1
    24    9   10 2
    25    9   11 1
    26   11   12 1
    27   12   13 1
    28   12   48 1
    29   12   49 1
    30   13   18 ar
    31   13   14 ar
    32   14   15 ar
    33   14   50 1
    34   15   16 ar
    35   15   51 1
    36   16   17 ar
    37   16   52 1
    38   17   18 ar
    39   17   53 1
    40   18   54 1
    41   19   20 1
    42   19   55 1
    43   20   25 ar
    44   20   21 ar
    45   21   22 ar
    46   22   23 ar
    47   22   56 1
    48   23   24 ar
    49   23   57 1
    50   24   25 ar
    51   24   26 1
    52   26   30 1
    53   26   27 1
    54   27   28 2
    55   27   58 1
    56   28   29 1
    57   29   34 ar
    58   29   30 ar
    59   30   31 ar
    60   31   32 ar
    61   31   59 1
    62   32   33 ar
    63   32   60 1
    64   33   34 ar
    65   33   61 1
    66   34   62 1
@<TRIPOS>MOLECULE
CHEMBL567124
   70    74     0     0     0
SMALL
USER_CHARGES

@<TRIPOS>ATOM
      1 C1         -0.1660    0.2730    1.0421 C.3       1 <0>        -0.1051
      2 C2         -1.3509   -0.5394    1.4969 C.ar      1 <0>        -0.1037
      3 C3         -2.4657   -0.6808    0.6680 C.ar      1 <0>        -0.0647
      4 C4         -2.8076   -0.1872   -0.6684 C.2       1 <0>        -0.2137
      5 C5         -4.0336   -0.6516   -0.9571 C.2       1 <0>         0.0620
      6 N1         -4.5054   -1.4023    0.0846 N.pl3     1 <0>        -0.5967
      7 H1         -5.3693   -1.8427    0.1079 H         1 <0>         0.4157
      8 C6         -3.5691   -1.4403    1.0964 C.ar      1 <0>         0.0636
      9 C7         -3.5402   -2.0466    2.3483 C.ar      1 <0>        -0.0898
     10 C8         -2.4374   -1.9010    3.1587 C.ar      1 <0>        -0.1459
     11 C9         -1.3387   -1.1542    2.7350 C.ar      1 <0>         0.1754
     12 N2         -0.2221   -1.0214    3.5687 N.pl3     1 <0>        -0.7092
     13 C10        -0.2558   -1.5273    4.8557 C.ar      1 <0>         0.2571
     14 C11        -0.6318   -0.7165    5.9453 C.ar      1 <0>        -0.1118
     15 C12        -0.6507   -1.2726    7.2237 C.ar      1 <0>         0.1397
     16 N3         -0.3239   -2.5354    7.4199 N.ar      1 <0>        -0.4736
     17 C13         0.0339   -3.3316    6.4332 C.ar      1 <0>         0.1610
     18 C14         0.0786   -2.8693    5.1167 C.ar      1 <0>        -0.0794
     19 C15         0.4630   -3.7444    4.0504 C.1       1 <0>         0.2504
     20 N4          0.7679   -4.4387    3.2045 N.1       1 <0>        -0.3870
     21 C16        -0.9980    0.6946    5.7372 C.2       1 <0>        -0.0845
     22 C17        -1.3546    1.4573    6.7837 C.2       1 <0>        -0.1054
     23 C18        -1.7211    2.8695    6.5755 C.ar      1 <0>        -0.0141
     24 C19        -1.7041    3.4166    5.2892 C.ar      1 <0>        -0.1430
     25 C20        -2.0478    4.7386    5.0987 C.ar      1 <0>        -0.0752
     26 C21        -2.4096    5.5262    6.1766 C.ar      1 <0>        -0.2088
     27 C22        -2.4292    4.9923    7.4582 C.ar      1 <0>         0.1263
     28 C23        -2.0923    3.6650    7.6616 C.ar      1 <0>        -0.1377
     29 O1         -2.7848    5.7719    8.5132 O.3       1 <0>        -0.3019
     30 C24        -3.1260    7.1304    8.2301 C.3       1 <0>         0.0624
     31 C25        -3.4959    7.8451    9.5313 C.3       1 <0>         0.0562
     32 N5         -2.3246    7.8872   10.4169 N.3       1 <0>        -0.5328
     33 C26        -2.7223    8.1712   11.8030 C.3       1 <0>         0.0265
     34 C27        -1.4834    8.1474   12.7010 C.3       1 <0>        -0.0025
     35 N6         -0.5204    9.1533   12.2338 N.4       1 <0>        -0.3882
     36 C28        -0.1141    8.8423   10.8570 C.3       1 <0>        -0.0018
     37 C29        -1.3415    8.8719    9.9437 C.3       1 <0>         0.0207
     38 C30         0.6609    9.1426   13.1070 C.3       1 <0>        -0.0458
     39 H2          0.5343   -0.3717    0.5109 H         1 <0>         0.0676
     40 H3         -0.5041    1.0678    0.3772 H         1 <0>         0.0705
     41 H4          0.3289    0.7106    1.9091 H         1 <0>         0.0571
     42 H5         -2.1904    0.4333   -1.3011 H         1 <0>         0.1451
     43 H6         -4.5685   -0.4604   -1.8756 H         1 <0>         0.1706
     44 H7         -4.3836   -2.6315    2.6844 H         1 <0>         0.1221
     45 H8         -2.4209   -2.3734    4.1298 H         1 <0>         0.1206
     46 H9          0.5753   -0.5747    3.2439 H         1 <0>         0.4153
     47 H10        -0.9370   -0.6602    8.0660 H         1 <0>         0.1686
     48 H11         0.2925   -4.3584    6.6454 H         1 <0>         0.1726
     49 H12        -0.9798    1.1163    4.7430 H         1 <0>         0.1320
     50 H13        -1.3728    1.0357    7.7779 H         1 <0>         0.1278
     51 H14        -1.4218    2.8046    4.4453 H         1 <0>         0.1287
     52 H15        -2.0340    5.1605    4.1046 H         1 <0>         0.1280
     53 H16        -2.6776    6.5607    6.0209 H         1 <0>         0.1244
     54 H17        -2.1122    3.2473    8.6573 H         1 <0>         0.1328
     55 H18        -2.2738    7.6308    7.7703 H         1 <0>         0.0622
     56 H19        -3.9749    7.1570    7.5469 H         1 <0>         0.0749
     57 H20        -3.8193    8.8618    9.3081 H         1 <0>         0.0713
     58 H21        -4.3051    7.3064   10.0244 H         1 <0>         0.1005
     59 H22        -3.1889    9.1550   11.8532 H         1 <0>         0.0605
     60 H23        -3.4307    7.4147   12.1405 H         1 <0>         0.1252
     61 H24        -1.7742    8.3719   13.7273 H         1 <0>         0.1363
     62 H25        -1.0248    7.1594   12.6613 H         1 <0>         0.1387
     63 H26         0.6103    9.5820   10.5161 H         1 <0>         0.1357
     64 H27         0.3375    7.8507   10.8267 H         1 <0>         0.1385
     65 H28        -1.0426    8.6265    8.9246 H         1 <0>         0.1216
     66 H29        -1.7855    9.8672    9.9632 H         1 <0>         0.0616
     67 H30         1.1238    8.1561   13.0798 H         1 <0>         0.1235
     68 H31         1.3756    9.8890   12.7604 H         1 <0>         0.1241
     69 H32         0.3597    9.3746   14.1285 H         1 <0>         0.1246
     70 H33        -0.9490   10.0664   12.2597 H         1 <0>         0.4220
@<TRIPOS>BOND
     1    1    2 1
     2    1   39 1
     3    1   40 1
     4    1   41 1
     5    2   11 ar
     6    2    3 ar
     7    3    8 ar
     8    3    4 1
     9    4    5 2
    10    4   42 1
    11    5    6 1
    12    5   43 1
    13    6    7 1
    14    6    8 1
    15    8    9 ar
    16    9   10 ar
    17    9   44 1
    18   10   11 ar
    19   10   45 1
    20   11   12 1
    21   12   13 1
    22   12   46 1
    23   13   18 ar
    24   13   14 ar
    25   14   15 ar
    26   14   21 1
    27   15   16 ar
    28   15   47 1
    29   16   17 ar
    30   17   18 ar
    31   17   48 1
    32   18   19 1
    33   19   20 3
    34   21   22 2
    35   21   49 1
    36   22   23 1
    37   22   50 1
    38   23   28 ar
    39   23   24 ar
    40   24   25 ar
    41   24   51 1
    42   25   26 ar
    43   25   52 1
    44   26   27 ar
    45   26   53 1
    46   27   28 ar
    47   27   29 1
    48   28   54 1
    49   29   30 1
    50   30   31 1
    51   30   55 1
    52   30   56 1
    53   31   32 1
    54   31   57 1
    55   31   58 1
    56   32   37 1
    57   32   33 1
    58   33   34 1
    59   33   59 1
    60   33   60 1
    61   34   35 1
    62   34   61 1
    63   34   62 1
    64   35   36 1
    65   35   38 1
    66   35   70 1
    67   36   37 1
    68   36   63 1
    69   36   64 1
    70   37   65 1
    71   37   66 1
    72   38   67 1
    73   38   68 1
    74   38   69 1
@<TRIPOS>MOLECULE
CHEMBL31965
   59    62     0     0     0
SMALL
USER_CHARGES

@<TRIPOS>ATOM
      1 C1         -0.2063    1.0844    0.8125 C.2       1 <0>        -0.0780
      2 C2         -0.0916   -0.1284    0.2785 C.2       1 <0>        -0.2217
      3 C3          1.1892   -0.8472    0.3546 C.2       1 <0>         0.5464
      4 O1          2.1435   -0.3327    0.9059 O.2       1 <0>        -0.5301
      5 N1          1.3054   -2.0761   -0.1864 N.am      1 <0>        -0.6549
      6 C4          2.5517   -2.7129   -0.2160 C.ar      1 <0>         0.1200
      7 C5          3.7048   -1.9595   -0.1827 C.ar      1 <0>        -0.0579
      8 C6          4.9490   -2.5997   -0.2120 C.ar      1 <0>        -0.1974
      9 C7          5.0154   -4.0138   -0.2753 C.ar      1 <0>         0.2129
     10 C8          3.8313   -4.7603   -0.3083 C.ar      1 <0>        -0.1947
     11 C9          2.6164   -4.1137   -0.2734 C.ar      1 <0>         0.1622
     12 O2          1.4681   -4.8389   -0.3002 O.3       1 <0>        -0.3093
     13 C10         1.5999   -6.2606   -0.3586 C.3       1 <0>         0.0588
     14 C11         0.2106   -6.9010   -0.3813 C.3       1 <0>        -0.1156
     15 C12         0.3517   -8.4232   -0.4438 C.3       1 <0>         0.0578
     16 N2         -0.9822   -9.0382   -0.4657 N.3       1 <0>        -0.5360
     17 C13        -1.6880   -8.8108    0.8038 C.3       1 <0>         0.0125
     18 C14        -3.0921   -9.4148    0.7161 C.3       1 <0>         0.0626
     19 O3         -2.9885  -10.8047    0.3955 O.3       1 <0>        -0.3850
     20 C15        -2.3071  -11.0626   -0.8351 C.3       1 <0>         0.0628
     21 C16        -0.8951  -10.4753   -0.7631 C.3       1 <0>         0.0171
     22 N3          6.2221   -4.6015   -0.3018 N.ar      1 <0>        -0.5452
     23 C17         7.3156   -3.8777   -0.2694 C.ar      1 <0>         0.3493
     24 N4          7.3023   -2.5556   -0.2097 N.ar      1 <0>        -0.5859
     25 C18         6.1642   -1.8746   -0.1796 C.ar      1 <0>         0.4714
     26 N5          6.1650   -0.4957   -0.1182 N.pl3     1 <0>        -0.6328
     27 C19         7.3694    0.2084   -0.2227 C.ar      1 <0>         0.1581
     28 C20         7.5013    1.4536    0.3785 C.ar      1 <0>        -0.1169
     29 C21         8.6911    2.1472    0.2750 C.ar      1 <0>        -0.1176
     30 C22         9.7524    1.6027   -0.4280 C.ar      1 <0>         0.0901
     31 C23         9.6235    0.3609   -1.0292 C.ar      1 <0>        -0.0524
     32 C24         8.4363   -0.3392   -0.9225 C.ar      1 <0>        -0.0856
     33 Cl1        10.9555   -0.3188   -1.9109 Cl        1 <0>        -0.0424
     34 F1         10.9152    2.2833   -0.5284 F         1 <0>        -0.1264
     35 H1          0.6411    1.5413    1.3020 H         1 <0>         0.1166
     36 H2         -1.1456    1.6141    0.7527 H         1 <0>         0.1209
     37 H3         -0.9390   -0.5853   -0.2110 H         1 <0>         0.1323
     38 H4          0.5255   -2.5194   -0.5554 H         1 <0>         0.4201
     39 H5          3.6489   -0.8820   -0.1348 H         1 <0>         0.1596
     40 H6          3.8708   -5.8385   -0.3565 H         1 <0>         0.1517
     41 H7          2.1429   -6.5383   -1.2620 H         1 <0>         0.0720
     42 H8          2.1473   -6.6110    0.5165 H         1 <0>         0.0691
     43 H9         -0.3323   -6.6233    0.5221 H         1 <0>         0.0760
     44 H10        -0.3367   -6.5506   -1.2564 H         1 <0>         0.0860
     45 H11         0.8947   -8.7010   -1.3473 H         1 <0>         0.0821
     46 H12         0.8990   -8.7736    0.4312 H         1 <0>         0.0409
     47 H13        -1.1377   -9.2854    1.6162 H         1 <0>         0.0448
     48 H14        -1.7636   -7.7398    0.9914 H         1 <0>         0.0895
     49 H15        -3.5986   -9.2990    1.6743 H         1 <0>         0.0993
     50 H16        -3.6604   -8.9035   -0.0609 H         1 <0>         0.0609
     51 H17        -2.2459  -12.1385   -0.9988 H         1 <0>         0.1001
     52 H18        -2.8525  -10.5991   -1.6572 H         1 <0>         0.0612
     53 H19        -0.3918  -10.6192   -1.7193 H         1 <0>         0.0886
     54 H20        -0.3321  -10.9764    0.0243 H         1 <0>         0.0452
     55 H21         8.2696   -4.3834   -0.2921 H         1 <0>         0.1993
     56 H22         5.3306   -0.0149   -0.0027 H         1 <0>         0.4275
     57 H23         6.6738    1.8794    0.9265 H         1 <0>         0.1431
     58 H24         8.7936    3.1154    0.7424 H         1 <0>         0.1506
     59 H25         8.3373   -1.3092   -1.3869 H         1 <0>         0.1663
@<TRIPOS>BOND
     1    1    2 2
     2    1   35 1
     3    1   36 1
     4    2    3 1
     5    2   37 1
     6    3    4 2
     7    3    5 am
     8    5    6 1
     9    5   38 1
    10    6   11 ar
    11    6    7 ar
    12    7    8 ar
    13    7   39 1
    14    8   25 ar
    15    8    9 ar
    16    9   10 ar
    17    9   22 ar
    18   10   11 ar
    19   10   40 1
    20   11   12 1
    21   12   13 1
    22   13   14 1
    23   13   41 1
    24   13   42 1
    25   14   15 1
    26   14   43 1
    27   14   44 1
    28   15   16 1
    29   15   45 1
    30   15   46 1
    31   16   21 1
    32   16   17 1
    33   17   18 1
    34   17   47 1
    35   17   48 1
    36   18   19 1
    37   18   49 1
    38   18   50 1
    39   19   20 1
    40   20   21 1
    41   20   51 1
    42   20   52 1
    43   21   53 1
    44   21   54 1
    45   22   23 ar
    46   23   24 ar
    47   23   55 1
    48   24   25 ar
    49   25   26 1
    50   26   27 1
    51   26   56 1
    52   27   32 ar
    53   27   28 ar
    54   28   29 ar
    55   28   57 1
    56   29   30 ar
    57   29   58 1
    58   30   31 ar
    59   30   34 1
    60   31   32 ar
    61   31   33 1
    62   32   59 1
@<TRIPOS>MOLECULE
CHEMBL31965__1
   60    63     0     0     0
SMALL
USER_CHARGES

@<TRIPOS>ATOM
      1 C1         -0.2063    1.0844    0.8125 C.2       1 <0>        -0.0700
      2 C2         -0.0916   -0.1284    0.2785 C.2       1 <0>        -0.2287
      3 C3          1.1892   -0.8472    0.3546 C.2       1 <0>         0.5467
      4 O1          2.1435   -0.3327    0.9059 O.2       1 <0>        -0.5252
      5 N1          1.3054   -2.0761   -0.1864 N.am      1 <0>        -0.6583
      6 C4          2.5517   -2.7129   -0.2160 C.ar      1 <0>         0.1178
      7 C5          3.7048   -1.9595   -0.1827 C.ar      1 <0>        -0.0502
      8 C6          4.9490   -2.5997   -0.2120 C.ar      1 <0>        -0.1959
      9 C7          5.0154   -4.0138   -0.2753 C.ar      1 <0>         0.2125
     10 C8          3.8313   -4.7603   -0.3083 C.ar      1 <0>        -0.1905
     11 C9          2.6164   -4.1137   -0.2734 C.ar      1 <0>         0.1536
     12 O2          1.4681   -4.8389   -0.3002 O.3       1 <0>        -0.3103
     13 C10         1.5999   -6.2606   -0.3586 C.3       1 <0>         0.0605
     14 C11         0.2106   -6.9010   -0.3813 C.3       1 <0>        -0.1506
     15 C12         0.3517   -8.4232   -0.4438 C.3       1 <0>        -0.0064
     16 N2         -0.9822   -9.0382   -0.4657 N.4       1 <0>        -0.3841
     17 C13        -1.6689   -8.7643    0.8042 C.3       1 <0>        -0.0501
     18 C14        -3.0584   -9.4058    0.7789 C.3       1 <0>         0.0363
     19 O3         -2.9250  -10.8107    0.5461 O.3       1 <0>        -0.3559
     20 C15        -2.2405  -11.1287   -0.6688 C.3       1 <0>         0.0356
     21 C16        -0.8494  -10.4904   -0.6462 C.3       1 <0>        -0.0435
     22 N3          6.2221   -4.6015   -0.3018 N.ar      1 <0>        -0.5509
     23 C17         7.3156   -3.8777   -0.2694 C.ar      1 <0>         0.3578
     24 N4          7.3023   -2.5556   -0.2097 N.ar      1 <0>        -0.5825
     25 C18         6.1642   -1.8746   -0.1796 C.ar      1 <0>         0.4750
     26 N5          6.1650   -0.4957   -0.1182 N.pl3     1 <0>        -0.6291
     27 C19         7.3694    0.2084   -0.2227 C.ar      1 <0>         0.1500
     28 C20         7.5013    1.4536    0.3785 C.ar      1 <0>        -0.1133
     29 C21         8.6911    2.1472    0.2750 C.ar      1 <0>        -0.1175
     30 C22         9.7524    1.6027   -0.4280 C.ar      1 <0>         0.0961
     31 C23         9.6235    0.3609   -1.0292 C.ar      1 <0>        -0.0540
     32 C24         8.4363   -0.3392   -0.9225 C.ar      1 <0>        -0.0839
     33 Cl1        10.9555   -0.3188   -1.9109 Cl        1 <0>        -0.0390
     34 F1         10.9152    2.2833   -0.5284 F         1 <0>        -0.1236
     35 H1          0.6411    1.5413    1.3020 H         1 <0>         0.1184
     36 H2         -1.1456    1.6141    0.7527 H         1 <0>         0.1230
     37 H3         -0.9390   -0.5853   -0.2110 H         1 <0>         0.1310
     38 H4          0.5255   -2.5194   -0.5554 H         1 <0>         0.4169
     39 H5          3.6489   -0.8820   -0.1348 H         1 <0>         0.1617
     40 H6          3.8708   -5.8385   -0.3565 H         1 <0>         0.1491
     41 H7          2.1429   -6.5383   -1.2620 H         1 <0>         0.0803
     42 H8          2.1473   -6.6110    0.5165 H         1 <0>         0.0797
     43 H9         -0.3323   -6.6233    0.5221 H         1 <0>         0.0999
     44 H10        -0.3367   -6.5506   -1.2564 H         1 <0>         0.1009
     45 H11         0.8947   -8.7010   -1.3473 H         1 <0>         0.1389
     46 H12         0.8990   -8.7736    0.4312 H         1 <0>         0.1366
     47 H13        -1.0903   -9.1824    1.6279 H         1 <0>         0.1409
     48 H14        -1.7680   -7.6872    0.9390 H         1 <0>         0.1439
     49 H15        -3.5531   -9.2407    1.7360 H         1 <0>         0.1427
     50 H16        -3.6510   -8.9592   -0.0196 H         1 <0>         0.0818
     51 H17        -2.1431  -12.2105   -0.7594 H         1 <0>         0.1434
     52 H18        -2.8051  -10.7411   -1.5169 H         1 <0>         0.0820
     53 H19        -0.3402  -10.6946   -1.5880 H         1 <0>         0.1445
     54 H20        -0.2711  -10.9078    0.1781 H         1 <0>         0.1406
     55 H21         8.2696   -4.3834   -0.2921 H         1 <0>         0.2019
     56 H22         5.3306   -0.0149   -0.0027 H         1 <0>         0.4278
     57 H23         6.6738    1.8794    0.9265 H         1 <0>         0.1437
     58 H24         8.7936    3.1154    0.7424 H         1 <0>         0.1526
     59 H25         8.3373   -1.3092   -1.3869 H         1 <0>         0.1652
     60 H26        -1.5183   -8.6520   -1.2283 H         1 <0>         0.4243
@<TRIPOS>BOND
     1    1    2 2
     2    1   35 1
     3    1   36 1
     4    2    3 1
     5    2   37 1
     6    3    4 2
     7    3    5 am
     8    5    6 1
     9    5   38 1
    10    6   11 ar
    11    6    7 ar
    12    7    8 ar
    13    7   39 1
    14    8   25 ar
    15    8    9 ar
    16    9   10 ar
    17    9   22 ar
    18   10   11 ar
    19   10   40 1
    20   11   12 1
    21   12   13 1
    22   13   14 1
    23   13   41 1
    24   13   42 1
    25   14   15 1
    26   14   43 1
    27   14   44 1
    28   15   16 1
    29   15   45 1
    30   15   46 1
    31   16   21 1
    32   16   17 1
    33   16   60 1
    34   17   18 1
    35   17   47 1
    36   17   48 1
    37   18   19 1
    38   18   49 1
    39   18   50 1
    40   19   20 1
    41   20   21 1
    42   20   51 1
    43   20   52 1
    44   21   53 1
    45   21   54 1
    46   22   23 ar
    47   23   24 ar
    48   23   55 1
    49   24   25 ar
    50   25   26 1
    51   26   27 1
    52   26   56 1
    53   27   32 ar
    54   27   28 ar
    55   28   29 ar
    56   28   57 1
    57   29   30 ar
    58   29   58 1
    59   30   31 ar
    60   30   34 1
    61   31   32 ar
    62   31   33 1
    63   32   59 1
@<TRIPOS>MOLECULE
CHEMBL1081436
   59    64     0     0     0
SMALL
USER_CHARGES

@<TRIPOS>ATOM
      1 C1          2.0884    1.1830    0.8249 C.3       1 <0>        -0.1194
      2 C2          2.3356   -0.3023    0.8848 C.ar      1 <0>        -0.0994
      3 C3          3.0967   -0.9140   -0.0939 C.ar      1 <0>        -0.0961
      4 C4          3.3275   -2.2735   -0.0460 C.ar      1 <0>        -0.1101
      5 C5          2.7920   -3.0364    0.9938 C.ar      1 <0>        -0.1139
      6 C6          2.0245   -2.4194    1.9814 C.ar      1 <0>        -0.0934
      7 C7          1.8025   -1.0517    1.9268 C.ar      1 <0>         0.1655
      8 N1          1.0381   -0.4273    2.9174 N.pl3     1 <0>        -0.6355
      9 C8          0.3631   -1.1880    3.8498 C.2       1 <0>         0.5392
     10 N2          0.2639   -2.4932    3.8270 N.2       1 <0>        -0.4993
     11 C9         -0.4679   -2.9160    4.8916 C.ar      1 <0>         0.0763
     12 C10        -0.8698   -4.1771    5.3386 C.ar      1 <0>        -0.0735
     13 C11        -1.6268   -4.2877    6.4836 C.ar      1 <0>        -0.1117
     14 C12        -1.9935   -3.1562    7.1969 C.ar      1 <0>        -0.1093
     15 C13        -1.6047   -1.9035    6.7681 C.ar      1 <0>        -0.0844
     16 C14        -0.8421   -1.7737    5.6180 C.ar      1 <0>         0.0555
     17 N3         -0.2987   -0.6911    4.9412 N.pl3     1 <0>        -0.4525
     18 C15        -0.4080    0.6504    5.3026 C.ar      1 <0>         0.4345
     19 C16        -0.4900    1.6385    4.3285 C.ar      1 <0>        -0.3263
     20 C17        -0.5980    2.9641    4.7410 C.ar      1 <0>         0.4709
     21 N4         -0.6186    3.2352    6.0444 N.ar      1 <0>        -0.5807
     22 C18        -0.5386    2.2693    6.9366 C.ar      1 <0>         0.3800
     23 N5         -0.4410    1.0032    6.5854 N.ar      1 <0>        -0.5669
     24 N6         -0.6822    3.9863    3.8086 N.pl3     1 <0>        -0.8266
     25 C19         3.0373   -4.4932    1.0472 C.2       1 <0>         0.5614
     26 O1          2.5701   -5.1554    1.9533 O.2       1 <0>        -0.5005
     27 N7          3.7789   -5.0872    0.0914 N.am      1 <0>        -0.6654
     28 C20         4.0879   -6.4443    0.1907 C.ar      1 <0>         0.1454
     29 C21         3.1904   -7.3245    0.7590 C.ar      1 <0>        -0.1028
     30 C22         3.4900   -8.6795    0.8623 C.ar      1 <0>        -0.0963
     31 C23         4.6740   -9.1769    0.4072 C.ar      1 <0>        -0.1027
     32 C24         5.6142   -8.3148   -0.1780 C.ar      1 <0>        -0.0976
     33 C25         5.3170   -6.9323   -0.2933 C.ar      1 <0>        -0.0359
     34 C26         6.2743   -6.0927   -0.8875 C.ar      1 <0>        -0.1590
     35 C27         7.4400   -6.6412   -1.3307 C.ar      1 <0>         0.0792
     36 N8          7.6912   -7.9380   -1.2158 N.ar      1 <0>        -0.4878
     37 C28         6.8487   -8.7783   -0.6623 C.ar      1 <0>         0.1505
     38 H1          2.8794    1.7050    1.3635 H         1 <0>         0.0772
     39 H2          2.0812    1.5085   -0.2153 H         1 <0>         0.0816
     40 H3          1.1258    1.4099    1.2833 H         1 <0>         0.0568
     41 H4          3.5118   -0.3258   -0.8990 H         1 <0>         0.1366
     42 H5          3.9220   -2.7477   -0.8129 H         1 <0>         0.1255
     43 H6          1.6077   -3.0043    2.7880 H         1 <0>         0.1970
     44 H7          0.9825    0.5406    2.9490 H         1 <0>         0.4199
     45 H8         -0.5881   -5.0624    4.7878 H         1 <0>         0.1355
     46 H9         -1.9376   -5.2628    6.8286 H         1 <0>         0.1337
     47 H10        -2.5873   -3.2561    8.0934 H         1 <0>         0.1335
     48 H11        -1.8940   -1.0261    7.3275 H         1 <0>         0.1298
     49 H12        -0.4701    1.3847    3.2789 H         1 <0>         0.1416
     50 H13        -0.5580    2.5222    7.9864 H         1 <0>         0.2108
     51 H14        -0.6662    3.7807    2.8608 H         1 <0>         0.4144
     52 H15        -0.7572    4.9072    4.1039 H         1 <0>         0.4151
     53 H16         4.0978   -4.5713   -0.6656 H         1 <0>         0.4101
     54 H17         2.2442   -6.9576    1.1285 H         1 <0>         0.1482
     55 H18         2.7713   -9.3489    1.3115 H         1 <0>         0.1329
     56 H19         4.8886  -10.2315    0.4969 H         1 <0>         0.1360
     57 H20         6.0895   -5.0337   -0.9911 H         1 <0>         0.1316
     58 H21         8.1801   -6.0018   -1.7888 H         1 <0>         0.1540
     59 H22         7.0989   -9.8265   -0.5901 H         1 <0>         0.1666
@<TRIPOS>BOND
     1    1    2 1
     2    1   38 1
     3    1   39 1
     4    1   40 1
     5    2    7 ar
     6    2    3 ar
     7    3    4 ar
     8    3   41 1
     9    4    5 ar
    10    4   42 1
    11    5    6 ar
    12    5   25 1
    13    6    7 ar
    14    6   43 1
    15    7    8 1
    16    8    9 1
    17    8   44 1
    18    9   17 1
    19    9   10 2
    20   10   11 1
    21   11   16 ar
    22   11   12 ar
    23   12   13 ar
    24   12   45 1
    25   13   14 ar
    26   13   46 1
    27   14   15 ar
    28   14   47 1
    29   15   16 ar
    30   15   48 1
    31   16   17 1
    32   17   18 1
    33   18   23 ar
    34   18   19 ar
    35   19   20 ar
    36   19   49 1
    37   20   21 ar
    38   20   24 1
    39   21   22 ar
    40   22   23 ar
    41   22   50 1
    42   24   51 1
    43   24   52 1
    44   25   26 2
    45   25   27 am
    46   27   28 1
    47   27   53 1
    48   28   33 ar
    49   28   29 ar
    50   29   30 ar
    51   29   54 1
    52   30   31 ar
    53   30   55 1
    54   31   32 ar
    55   31   56 1
    56   32   37 ar
    57   32   33 ar
    58   33   34 ar
    59   34   35 ar
    60   34   57 1
    61   35   36 ar
    62   35   58 1
    63   36   37 ar
    64   37   59 1
@<TRIPOS>MOLECULE
CHEMBL1081436__1
   60    65     0     0     0
SMALL
USER_CHARGES

@<TRIPOS>ATOM
      1 C1         -0.8588    1.6072    0.1481 C.3       1 <0>        -0.1283
      2 C2         -1.9036    0.6418    0.6455 C.ar      1 <0>        -0.0766
      3 C3         -3.0952    0.5021   -0.0415 C.ar      1 <0>        -0.0759
      4 C4         -4.0567   -0.3797    0.4077 C.ar      1 <0>        -0.0910
      5 C5         -3.8278   -1.1352    1.5595 C.ar      1 <0>        -0.0916
      6 C6         -2.6256   -0.9947    2.2524 C.ar      1 <0>        -0.1121
      7 C7         -1.6637   -0.1093    1.7901 C.ar      1 <0>         0.1455
      8 N1         -0.4545    0.0315    2.4780 N.pl3     1 <0>        -0.6612
      9 C8         -0.2597   -0.6300    3.6731 C.cat     1 <0>         0.6246
     10 N2         -0.1539   -1.9281    3.8063 N.pl3     1 <0>        -0.4790
     11 C9          0.0313   -2.2410    5.1161 C.ar      1 <0>         0.0547
     12 C10         0.1996   -3.4481    5.7990 C.ar      1 <0>        -0.0747
     13 C11         0.3701   -3.4429    7.1654 C.ar      1 <0>        -0.0712
     14 C12         0.3761   -2.2480    7.8693 C.ar      1 <0>        -0.0659
     15 C13         0.2107   -1.0474    7.2094 C.ar      1 <0>        -0.0670
     16 C14         0.0383   -1.0340    5.8341 C.ar      1 <0>         0.0937
     17 N3         -0.1420   -0.0266    4.8970 N.pl3     1 <0>        -0.3741
     18 C15        -0.1961    1.3421    5.1535 C.ar      1 <0>         0.4024
     19 C16        -0.2729    2.2529    4.1064 C.ar      1 <0>        -0.3031
     20 C17        -0.3246    3.6099    4.4149 C.ar      1 <0>         0.4770
     21 N4         -0.2987    3.9830    5.6927 N.ar      1 <0>        -0.5617
     22 C18        -0.2254    3.0879    6.6565 C.ar      1 <0>         0.3947
     23 N5         -0.1803    1.7955    6.4045 N.ar      1 <0>        -0.5641
     24 N6         -0.4014    4.5581    3.4067 N.pl3     1 <0>        -0.8151
     25 C19        -4.8564   -2.0802    2.0432 C.2       1 <0>         0.5582
     26 O1         -4.6550   -2.7369    3.0462 O.2       1 <0>        -0.5117
     27 N7         -6.0176   -2.2139    1.3721 N.am      1 <0>        -0.6549
     28 C20        -6.9474   -3.1748    1.7711 C.ar      1 <0>         0.1302
     29 C21        -7.0907   -3.4955    3.1052 C.ar      1 <0>        -0.0950
     30 C22        -8.0154   -4.4524    3.5123 C.ar      1 <0>        -0.1046
     31 C23        -8.8046   -5.0996    2.6097 C.ar      1 <0>        -0.0883
     32 C24        -8.6902   -4.8021    1.2430 C.ar      1 <0>        -0.1008
     33 C25        -7.7545   -3.8242    0.8172 C.ar      1 <0>        -0.0304
     34 C26        -7.6642   -3.5427   -0.5564 C.ar      1 <0>        -0.1676
     35 C27        -8.4798   -4.2143   -1.4166 C.ar      1 <0>         0.0894
     36 N8         -9.3501   -5.1202   -0.9923 N.ar      1 <0>        -0.4851
     37 C28        -9.4807   -5.4413    0.2735 C.ar      1 <0>         0.1575
     38 H1         -0.1930    1.0956   -0.5470 H         1 <0>         0.0909
     39 H2         -1.3456    2.4391   -0.3607 H         1 <0>         0.0924
     40 H3         -0.2820    1.9850    0.9923 H         1 <0>         0.0585
     41 H4         -3.2742    1.0854   -0.9326 H         1 <0>         0.1517
     42 H5         -4.9865   -0.4854   -0.1315 H         1 <0>         0.1394
     43 H6         -2.4428   -1.5763    3.1439 H         1 <0>         0.1312
     44 H7          0.2473    0.5942    2.1152 H         1 <0>         0.4447
     45 H8          0.1956   -4.3823    5.2570 H         1 <0>         0.1572
     46 H9          0.4998   -4.3763    7.6929 H         1 <0>         0.1606
     47 H10         0.5107   -2.2571    8.9409 H         1 <0>         0.1607
     48 H11         0.2156   -0.1202    7.7632 H         1 <0>         0.1680
     49 H12        -0.2917    1.9170    3.0801 H         1 <0>         0.1530
     50 H13        -0.2062    3.4230    7.6830 H         1 <0>         0.2227
     51 H14        -0.4195    4.2782    2.4782 H         1 <0>         0.4169
     52 H15        -0.4370    5.5014    3.6298 H         1 <0>         0.4224
     53 H16        -6.2069   -1.6421    0.6118 H         1 <0>         0.4124
     54 H17        -6.4777   -2.9983    3.8424 H         1 <0>         0.1441
     55 H18        -8.1088   -4.6865    4.5624 H         1 <0>         0.1347
     56 H19        -9.5159   -5.8398    2.9451 H         1 <0>         0.1401
     57 H20        -6.9624   -2.8082   -0.9231 H         1 <0>         0.1304
     58 H21        -8.4159   -4.0026   -2.4738 H         1 <0>         0.1567
     59 H22       -10.2032   -6.1871    0.5706 H         1 <0>         0.1701
     60 H23        -0.2010   -2.5696    3.0802 H         1 <0>         0.4644
@<TRIPOS>BOND
     1    1    2 1
     2    1   38 1
     3    1   39 1
     4    1   40 1
     5    2    7 ar
     6    2    3 ar
     7    3    4 ar
     8    3   41 1
     9    4    5 ar
    10    4   42 1
    11    5    6 ar
    12    5   25 1
    13    6    7 ar
    14    6   43 1
    15    7    8 1
    16    8    9 1
    17    8   44 1
    18    9   17 1
    19    9   10 2
    20   10   11 1
    21   10   60 1
    22   11   16 ar
    23   11   12 ar
    24   12   13 ar
    25   12   45 1
    26   13   14 ar
    27   13   46 1
    28   14   15 ar
    29   14   47 1
    30   15   16 ar
    31   15   48 1
    32   16   17 1
    33   17   18 1
    34   18   23 ar
    35   18   19 ar
    36   19   20 ar
    37   19   49 1
    38   20   21 ar
    39   20   24 1
    40   21   22 ar
    41   22   23 ar
    42   22   50 1
    43   24   51 1
    44   24   52 1
    45   25   26 2
    46   25   27 am
    47   27   28 1
    48   27   53 1
    49   28   33 ar
    50   28   29 ar
    51   29   30 ar
    52   29   54 1
    53   30   31 ar
    54   30   55 1
    55   31   32 ar
    56   31   56 1
    57   32   37 ar
    58   32   33 ar
    59   33   34 ar
    60   34   35 ar
    61   34   57 1
    62   35   36 ar
    63   35   58 1
    64   36   37 ar
    65   37   59 1
@<TRIPOS>MOLECULE
CHEMBL164585
   11    11     0     0     0
SMALL
USER_CHARGES

@<TRIPOS>ATOM
      1 C1         -0.0175    1.4400    0.0100 C.2       1 <0>        -0.1018
      2 C2          1.1875    2.0420    0.0017 C.2       1 <0>        -0.2348
      3 S1          2.3245    0.6732   -0.0165 S.3       1 <0>         0.0819
      4 C3          1.2421   -0.6087   -0.0131 C.2       1 <0>        -0.2035
      5 C4          0.0021   -0.0041    0.0020 C.2       1 <0>        -0.1889
      6 C5         -1.2369   -0.7901    0.0096 C.2       1 <0>         0.5330
      7 O1         -2.3215   -0.2229    0.0230 O.co2     1 <0>        -0.6908
      8 O2         -1.1859   -2.0131    0.0026 O.co2     1 <0>        -0.6911
      9 H1         -0.9398    2.0016    0.0261 H         1 <0>         0.1400
     10 H2          1.4097    3.0989    0.0052 H         1 <0>         0.1757
     11 H3          1.4650   -1.6654   -0.0209 H         1 <0>         0.1804
@<TRIPOS>BOND
     1    1    5 1
     2    1    2 2
     3    1    9 1
     4    2    3 1
     5    2   10 1
     6    3    4 1
     7    4    5 2
     8    4   11 1
     9    5    6 1
    10    6    7 2
    11    6    8 1
@<TRIPOS>MOLECULE
CHEMBL255989
   80    83     0     0     0
SMALL
USER_CHARGES

@<TRIPOS>ATOM
      1 C1         -1.0920    1.7147    0.8130 C.3       1 <0>        -0.1217
      2 C2         -0.4660    0.3613    0.5953 C.ar      1 <0>        -0.0802
      3 C3         -0.4452   -0.1924   -0.6714 C.ar      1 <0>        -0.1067
      4 C4          0.1261   -1.4311   -0.8786 C.ar      1 <0>        -0.0944
      5 C5          0.6862   -2.1297    0.1928 C.ar      1 <0>        -0.1259
      6 C6          0.6656   -1.5710    1.4705 C.ar      1 <0>        -0.0523
      7 C7          0.0934   -0.3235    1.6673 C.ar      1 <0>         0.1397
      8 N1          0.0749    0.2437    2.9459 N.am      1 <0>        -0.6715
      9 C8         -0.0717   -0.5433    4.0302 C.2       1 <0>         0.5750
     10 O1         -0.1055   -1.7525    3.9039 O.2       1 <0>        -0.4906
     11 C9         -0.1909    0.0609    5.3677 C.ar      1 <0>        -0.3218
     12 C10        -0.1602    1.4503    5.5344 C.ar      1 <0>         0.2570
     13 N2         -0.2702    1.9529    6.7500 N.ar      1 <0>        -0.5873
     14 C11        -0.4084    1.1631    7.8079 C.ar      1 <0>         0.6181
     15 N3         -0.4428   -0.1572    7.6993 N.ar      1 <0>        -0.6260
     16 C12        -0.3449   -0.7439    6.5144 C.ar      1 <0>         0.4616
     17 O2         -0.3868   -2.0919    6.4085 O.3       1 <0>        -0.2596
     18 C13        -0.5451   -2.8332    7.6199 C.3       1 <0>         0.0312
     19 N4         -0.5192    1.7342    9.0586 N.pl3     1 <0>        -0.6894
     20 C14        -0.4834    3.1915    9.2042 C.3       1 <0>         0.1358
     21 C15        -0.6251    3.5600   10.6824 C.3       1 <0>        -0.1333
     22 C16        -0.5878    5.0820   10.8345 C.3       1 <0>         0.0595
     23 N5         -0.7238    5.4357   12.2537 N.3       1 <0>        -0.5396
     24 C17        -2.0537    5.0713   12.7623 C.3       1 <0>         0.0196
     25 C18        -2.1337    5.4007   14.2546 C.3       1 <0>        -0.0029
     26 N6         -1.8909    6.8357   14.4531 N.4       1 <0>        -0.3885
     27 C19        -0.5497    7.1795   13.9629 C.3       1 <0>        -0.0028
     28 C20        -0.4565    6.8650   12.4682 C.3       1 <0>         0.0254
     29 C21        -1.9857    7.1546   15.8840 C.3       1 <0>        -0.0460
     30 C22         1.2985   -3.4573   -0.0263 C.2       1 <0>         0.5632
     31 O3          1.7855   -4.0637    0.9079 O.2       1 <0>        -0.5069
     32 N7          1.3168   -3.9953   -1.2619 N.am      1 <0>        -0.6672
     33 C23         1.8100   -5.2898   -1.4537 C.ar      1 <0>         0.1429
     34 C24         2.8688   -5.7526   -0.6827 C.ar      1 <0>        -0.0843
     35 C25         3.3531   -7.0314   -0.8742 C.ar      1 <0>        -0.1068
     36 C26         2.7854   -7.8512   -1.8327 C.ar      1 <0>        -0.0807
     37 C27         1.7317   -7.3935   -2.6020 C.ar      1 <0>        -0.1696
     38 C28         1.2385   -6.1174   -2.4112 C.ar      1 <0>        -0.0581
     39 C29         0.0860   -5.6215   -3.2460 C.3       1 <0>        -0.1392
     40 C30         1.1166   -8.2900   -3.6456 C.3       1 <0>         0.5116
     41 F1          1.7762   -9.5237   -3.6479 F         1 <0>        -0.1745
     42 F2         -0.2374   -8.4855   -3.3529 F         1 <0>        -0.1744
     43 F3          1.2400   -7.6928   -4.9047 F         1 <0>        -0.1747
     44 H1         -0.3373    2.4898    0.6795 H         1 <0>         0.0782
     45 H2         -1.8965    1.8631    0.0927 H         1 <0>         0.0778
     46 H3         -1.4949    1.7702    1.8243 H         1 <0>         0.0663
     47 H4         -0.8779    0.3463   -1.5014 H         1 <0>         0.1371
     48 H5          0.1397   -1.8606   -1.8695 H         1 <0>         0.1278
     49 H6          1.0969   -2.1067    2.3032 H         1 <0>         0.1571
     50 H7          0.1676    1.2034    3.0522 H         1 <0>         0.4076
     51 H8         -0.0478    2.1020    4.6805 H         1 <0>         0.1768
     52 H9          0.2877   -2.6177    8.2893 H         1 <0>         0.0644
     53 H10        -1.4809   -2.5480    8.1007 H         1 <0>         0.0634
     54 H11        -0.5631   -3.8993    7.3937 H         1 <0>         0.1070
     55 H12        -0.6207    1.1709    9.8417 H         1 <0>         0.4168
     56 H13         0.4649    3.5715    8.8243 H         1 <0>         0.0761
     57 H14        -1.3043    3.6333    8.6394 H         1 <0>         0.0728
     58 H15        -1.5734    3.1800   11.0623 H         1 <0>         0.0715
     59 H16         0.1958    3.1182   11.2473 H         1 <0>         0.0855
     60 H17         0.3606    5.4619   10.4546 H         1 <0>         0.0946
     61 H18        -1.4086    5.5238   10.2696 H         1 <0>         0.0526
     62 H19        -2.8158    5.6349   12.2241 H         1 <0>         0.0620
     63 H20        -2.2190    4.0039   12.6161 H         1 <0>         0.1248
     64 H21        -3.1241    5.1443   14.6306 H         1 <0>         0.1359
     65 H22        -1.3804    4.8267   14.7942 H         1 <0>         0.1377
     66 H23        -0.3658    8.2420   14.1228 H         1 <0>         0.1366
     67 H24         0.1955    6.5964   14.5041 H         1 <0>         0.1379
     68 H25         0.5434    7.1061   12.1075 H         1 <0>         0.1250
     69 H26        -1.1923    7.4581   11.9252 H         1 <0>         0.0620
     70 H27        -1.2405    6.5804   16.4344 H         1 <0>         0.1233
     71 H28        -1.8056    8.2195   16.0315 H         1 <0>         0.1247
     72 H29        -2.9814    6.9007   16.2476 H         1 <0>         0.1244
     73 H30         0.9878   -3.4846   -2.0182 H         1 <0>         0.4123
     74 H31         3.3130   -5.1127    0.0654 H         1 <0>         0.1496
     75 H32         4.1763   -7.3918   -0.2752 H         1 <0>         0.1402
     76 H33         3.1663   -8.8509   -1.9808 H         1 <0>         0.1412
     77 H34         0.4693   -5.1465   -4.1490 H         1 <0>         0.0848
     78 H35        -0.5520   -6.4617   -3.5202 H         1 <0>         0.0830
     79 H36        -0.4930   -4.8977   -2.6725 H         1 <0>         0.0750
     80 H37        -2.5813    7.3670   13.9441 H         1 <0>         0.4226
@<TRIPOS>BOND
     1    1    2 1
     2    1   44 1
     3    1   45 1
     4    1   46 1
     5    2    7 ar
     6    2    3 ar
     7    3    4 ar
     8    3   47 1
     9    4    5 ar
    10    4   48 1
    11    5    6 ar
    12    5   30 1
    13    6    7 ar
    14    6   49 1
    15    7    8 1
    16    8    9 am
    17    8   50 1
    18    9   10 2
    19    9   11 1
    20   11   16 ar
    21   11   12 ar
    22   12   13 ar
    23   12   51 1
    24   13   14 ar
    25   14   15 ar
    26   14   19 1
    27   15   16 ar
    28   16   17 1
    29   17   18 1
    30   18   52 1
    31   18   53 1
    32   18   54 1
    33   19   20 1
    34   19   55 1
    35   20   21 1
    36   20   56 1
    37   20   57 1
    38   21   22 1
    39   21   58 1
    40   21   59 1
    41   22   23 1
    42   22   60 1
    43   22   61 1
    44   23   28 1
    45   23   24 1
    46   24   25 1
    47   24   62 1
    48   24   63 1
    49   25   26 1
    50   25   64 1
    51   25   65 1
    52   26   27 1
    53   26   29 1
    54   26   80 1
    55   27   28 1
    56   27   66 1
    57   27   67 1
    58   28   68 1
    59   28   69 1
    60   29   70 1
    61   29   71 1
    62   29   72 1
    63   30   31 2
    64   30   32 am
    65   32   33 1
    66   32   73 1
    67   33   38 ar
    68   33   34 ar
    69   34   35 ar
    70   34   74 1
    71   35   36 ar
    72   35   75 1
    73   36   37 ar
    74   36   76 1
    75   37   38 ar
    76   37   40 1
    77   38   39 1
    78   39   77 1
    79   39   78 1
    80   39   79 1
    81   40   41 1
    82   40   42 1
    83   40   43 1
@<TRIPOS>MOLECULE
CHEMBL255989__1
   80    83     0     0     0
SMALL
USER_CHARGES

@<TRIPOS>ATOM
      1 C1         -1.0920    1.7147    0.8130 C.3       1 <0>        -0.1217
      2 C2         -0.4660    0.3613    0.5953 C.ar      1 <0>        -0.0796
      3 C3         -0.4452   -0.1924   -0.6714 C.ar      1 <0>        -0.1064
      4 C4          0.1261   -1.4311   -0.8786 C.ar      1 <0>        -0.0932
      5 C5          0.6862   -2.1297    0.1928 C.ar      1 <0>        -0.1255
      6 C6          0.6656   -1.5710    1.4705 C.ar      1 <0>        -0.0522
      7 C7          0.0934   -0.3235    1.6673 C.ar      1 <0>         0.1379
      8 N1          0.0749    0.2437    2.9459 N.am      1 <0>        -0.6705
      9 C8         -0.0717   -0.5433    4.0302 C.2       1 <0>         0.5733
     10 O1         -0.1055   -1.7525    3.9039 O.2       1 <0>        -0.4883
     11 C9         -0.1909    0.0609    5.3677 C.ar      1 <0>        -0.3152
     12 C10        -0.1602    1.4503    5.5344 C.ar      1 <0>         0.2567
     13 N2         -0.2702    1.9529    6.7500 N.ar      1 <0>        -0.5882
     14 C11        -0.4084    1.1631    7.8079 C.ar      1 <0>         0.6173
     15 N3         -0.4428   -0.1572    7.6993 N.ar      1 <0>        -0.6235
     16 C12        -0.3449   -0.7439    6.5144 C.ar      1 <0>         0.4620
     17 O2         -0.3868   -2.0919    6.4085 O.3       1 <0>        -0.2577
     18 C13        -0.5451   -2.8332    7.6199 C.3       1 <0>         0.0307
     19 N4         -0.5192    1.7342    9.0586 N.pl3     1 <0>        -0.6946
     20 C14        -0.4834    3.1915    9.2042 C.3       1 <0>         0.1416
     21 C15        -0.6251    3.5600   10.6824 C.3       1 <0>        -0.1664
     22 C16        -0.5878    5.0820   10.8345 C.3       1 <0>        -0.0028
     23 N5         -0.7238    5.4357   12.2537 N.4       1 <0>        -0.3864
     24 C17        -2.0503    5.0279   12.7348 C.3       1 <0>        -0.0074
     25 C18        -2.1855    5.3792   14.2180 C.3       1 <0>         0.0244
     26 N6         -2.0054    6.8272   14.3939 N.3       1 <0>        -0.5436
     27 C19        -0.6911    7.2544   13.8938 C.3       1 <0>         0.0236
     28 C20        -0.5682    6.8876   12.4132 C.3       1 <0>        -0.0018
     29 C21        -2.1844    7.2130   15.8000 C.3       1 <0>         0.0191
     30 C22         1.2985   -3.4573   -0.0263 C.2       1 <0>         0.5630
     31 O3          1.7855   -4.0637    0.9079 O.2       1 <0>        -0.5072
     32 N7          1.3168   -3.9953   -1.2619 N.am      1 <0>        -0.6668
     33 C23         1.8100   -5.2898   -1.4537 C.ar      1 <0>         0.1423
     34 C24         2.8688   -5.7526   -0.6827 C.ar      1 <0>        -0.0842
     35 C25         3.3531   -7.0314   -0.8742 C.ar      1 <0>        -0.1069
     36 C26         2.7854   -7.8512   -1.8327 C.ar      1 <0>        -0.0803
     37 C27         1.7317   -7.3935   -2.6020 C.ar      1 <0>        -0.1694
     38 C28         1.2385   -6.1174   -2.4112 C.ar      1 <0>        -0.0577
     39 C29         0.0860   -5.6215   -3.2460 C.3       1 <0>        -0.1393
     40 C30         1.1166   -8.2900   -3.6456 C.3       1 <0>         0.5115
     41 F1          1.7762   -9.5237   -3.6479 F         1 <0>        -0.1744
     42 F2         -0.2374   -8.4855   -3.3529 F         1 <0>        -0.1743
     43 F3          1.2400   -7.6928   -4.9047 F         1 <0>        -0.1746
     44 H1         -0.3373    2.4898    0.6795 H         1 <0>         0.0783
     45 H2         -1.8965    1.8631    0.0927 H         1 <0>         0.0783
     46 H3         -1.4949    1.7702    1.8243 H         1 <0>         0.0658
     47 H4         -0.8779    0.3463   -1.5014 H         1 <0>         0.1377
     48 H5          0.1397   -1.8606   -1.8695 H         1 <0>         0.1284
     49 H6          1.0969   -2.1067    2.3032 H         1 <0>         0.1568
     50 H7          0.1676    1.2034    3.0522 H         1 <0>         0.4074
     51 H8         -0.0478    2.1020    4.6805 H         1 <0>         0.1787
     52 H9         -0.5631   -3.8993    7.3937 H         1 <0>         0.1086
     53 H10         0.2877   -2.6177    8.2893 H         1 <0>         0.0647
     54 H11        -1.4809   -2.5480    8.1007 H         1 <0>         0.0642
     55 H12        -0.6207    1.1709    9.8417 H         1 <0>         0.4180
     56 H13         0.4649    3.5715    8.8243 H         1 <0>         0.0825
     57 H14        -1.3043    3.6333    8.6394 H         1 <0>         0.0827
     58 H15        -1.5734    3.1800   11.0623 H         1 <0>         0.0956
     59 H16         0.1958    3.1182   11.2473 H         1 <0>         0.0954
     60 H17         0.3606    5.4619   10.4546 H         1 <0>         0.1375
     61 H18        -1.4086    5.5238   10.2696 H         1 <0>         0.1370
     62 H19        -2.8195    5.5505   12.1661 H         1 <0>         0.1396
     63 H20        -2.1694    3.9524   12.6038 H         1 <0>         0.1359
     64 H21        -3.1753    5.0902   14.5715 H         1 <0>         0.1240
     65 H22        -1.4251    4.8462   14.7888 H         1 <0>         0.0605
     66 H23        -0.5906    8.3334   14.0107 H         1 <0>         0.1249
     67 H24         0.0939    6.7522   14.4592 H         1 <0>         0.0607
     68 H25         0.4115    7.1908   12.0439 H         1 <0>         0.1375
     69 H26        -1.3450    7.4007   11.8462 H         1 <0>         0.1393
     70 H27        -1.4511    6.6923   16.4158 H         1 <0>         0.0399
     71 H28        -2.0458    8.2893   15.9020 H         1 <0>         0.0845
     72 H29        -3.1892    6.9437   16.1256 H         1 <0>         0.0847
     73 H30         0.9878   -3.4846   -2.0182 H         1 <0>         0.4124
     74 H31         3.3130   -5.1127    0.0654 H         1 <0>         0.1494
     75 H32         4.1763   -7.3918   -0.2752 H         1 <0>         0.1402
     76 H33         3.1663   -8.8509   -1.9808 H         1 <0>         0.1414
     77 H34         0.4693   -5.1465   -4.1490 H         1 <0>         0.0850
     78 H35        -0.5520   -6.4617   -3.5202 H         1 <0>         0.0832
     79 H36        -0.4930   -4.8977   -2.6725 H         1 <0>         0.0749
     80 H37        -0.0119    4.9607   12.7883 H         1 <0>         0.4209
@<TRIPOS>BOND
     1    1    2 1
     2    1   44 1
     3    1   45 1
     4    1   46 1
     5    2    7 ar
     6    2    3 ar
     7    3    4 ar
     8    3   47 1
     9    4    5 ar
    10    4   48 1
    11    5    6 ar
    12    5   30 1
    13    6    7 ar
    14    6   49 1
    15    7    8 1
    16    8    9 am
    17    8   50 1
    18    9   10 2
    19    9   11 1
    20   11   16 ar
    21   11   12 ar
    22   12   13 ar
    23   12   51 1
    24   13   14 ar
    25   14   15 ar
    26   14   19 1
    27   15   16 ar
    28   16   17 1
    29   17   18 1
    30   18   52 1
    31   18   53 1
    32   18   54 1
    33   19   20 1
    34   19   55 1
    35   20   21 1
    36   20   56 1
    37   20   57 1
    38   21   22 1
    39   21   58 1
    40   21   59 1
    41   22   23 1
    42   22   60 1
    43   22   61 1
    44   23   28 1
    45   23   24 1
    46   23   80 1
    47   24   25 1
    48   24   62 1
    49   24   63 1
    50   25   26 1
    51   25   64 1
    52   25   65 1
    53   26   27 1
    54   26   29 1
    55   27   28 1
    56   27   66 1
    57   27   67 1
    58   28   68 1
    59   28   69 1
    60   29   70 1
    61   29   71 1
    62   29   72 1
    63   30   31 2
    64   30   32 am
    65   32   33 1
    66   32   73 1
    67   33   38 ar
    68   33   34 ar
    69   34   35 ar
    70   34   74 1
    71   35   36 ar
    72   35   75 1
    73   36   37 ar
    74   36   76 1
    75   37   38 ar
    76   37   40 1
    77   38   39 1
    78   39   77 1
    79   39   78 1
    80   39   79 1
    81   40   41 1
    82   40   42 1
    83   40   43 1
@<TRIPOS>MOLECULE
CHEMBL494072
   61    65     0     0     0
SMALL
USER_CHARGES

@<TRIPOS>ATOM
      1 C1         -0.0184    1.5028    0.0103 C.3       1 <0>        -0.1256
      2 C2          0.0021   -0.0041    0.0020 C.ar      1 <0>        -0.0426
      3 C3          0.0057   -0.6865   -1.1992 C.ar      1 <0>        -0.1243
      4 C4          0.0244   -2.0665   -1.2155 C.ar      1 <0>        -0.0800
      5 C5          0.0393   -2.7811   -0.0156 C.ar      1 <0>        -0.1401
      6 C6          0.0357   -2.0972    1.1986 C.ar      1 <0>        -0.0408
      7 C7          0.0230   -0.7059    1.2067 C.ar      1 <0>        -0.0532
      8 C8          0.0258    0.0296    2.4952 C.ar      1 <0>        -0.0745
      9 C9          0.9442    1.0714    2.7002 C.ar      1 <0>        -0.0507
     10 C10         0.9685    1.7618    3.8710 C.ar      1 <0>        -0.1209
     11 C11         0.0659    1.4351    4.8952 C.ar      1 <0>         0.2174
     12 C12        -0.8667    0.3834    4.6979 C.ar      1 <0>        -0.2138
     13 C13        -0.8806   -0.3130    3.4827 C.ar      1 <0>        -0.0366
     14 C14        -1.7607    0.0771    5.7416 C.ar      1 <0>         0.2447
     15 N1         -1.6924    0.7789    6.8533 N.ar      1 <0>        -0.5579
     16 C15        -0.8042    1.7595    7.0044 C.ar      1 <0>         0.5733
     17 N2          0.0573    2.0909    6.0623 N.ar      1 <0>        -0.5735
     18 N3         -0.7844    2.4588    8.1975 N.pl3     1 <0>        -0.6968
     19 C16        -1.7283    2.1151    9.2638 C.3       1 <0>         0.1400
     20 C17        -1.4964    3.0330   10.4657 C.3       1 <0>         0.0428
     21 N4         -2.4430    2.6883   11.5349 N.3       1 <0>        -0.5320
     22 C18        -3.8244    2.9911   11.1334 C.3       1 <0>         0.0117
     23 C19        -4.7802    2.5625   12.2499 C.3       1 <0>         0.0630
     24 O1         -4.4126    3.2218   13.4646 O.3       1 <0>        -0.3850
     25 C20        -3.0733    2.9485   13.8854 C.3       1 <0>         0.0630
     26 C21        -2.1002    3.3811   12.7855 C.3       1 <0>         0.0182
     27 C22         0.0583   -4.2595   -0.0336 C.2       1 <0>         0.5645
     28 O2          0.0712   -4.8798    1.0116 O.2       1 <0>        -0.5318
     29 N5          0.0613   -4.9191   -1.2088 N.am      1 <0>        -0.6994
     30 C23         0.0801   -6.3839   -1.2266 C.3       1 <0>         0.0773
     31 C24         1.0206   -7.0663   -2.2219 C.3       1 <0>        -0.1921
     32 C25        -0.4903   -7.0828   -2.4623 C.3       1 <0>        -0.1879
     33 H1          1.0042    1.8801    0.0026 H         1 <0>         0.0782
     34 H2         -0.5455    1.8639   -0.8728 H         1 <0>         0.0717
     35 H3         -0.5286    1.8543    0.9071 H         1 <0>         0.0748
     36 H4         -0.0065   -0.1378   -2.1294 H         1 <0>         0.1329
     37 H5          0.0271   -2.5946   -2.1576 H         1 <0>         0.1258
     38 H6          0.0472   -2.6448    2.1294 H         1 <0>         0.1395
     39 H7          1.6417    1.3278    1.9165 H         1 <0>         0.1341
     40 H8          1.6816    2.5604    4.0130 H         1 <0>         0.1394
     41 H9         -1.5889   -1.1119    3.3198 H         1 <0>         0.1367
     42 H10        -2.4864   -0.7154    5.6324 H         1 <0>         0.1789
     43 H11        -0.1454    3.1768    8.3282 H         1 <0>         0.4142
     44 H12        -2.7483    2.2422    8.9010 H         1 <0>         0.0686
     45 H13        -1.5759    1.0783    9.5637 H         1 <0>         0.0787
     46 H14        -0.4764    2.9058   10.8285 H         1 <0>         0.0845
     47 H15        -1.6488    4.0698   10.1658 H         1 <0>         0.0436
     48 H16        -3.9261    4.0622   10.9584 H         1 <0>         0.0453
     49 H17        -4.0652    2.4479   10.2196 H         1 <0>         0.0912
     50 H18        -5.8003    2.8370   11.9811 H         1 <0>         0.0999
     51 H19        -4.7176    1.4831   12.3882 H         1 <0>         0.0622
     52 H20        -2.8589    3.5022   14.7995 H         1 <0>         0.1002
     53 H21        -2.9610    1.8804   14.0713 H         1 <0>         0.0619
     54 H22        -1.0824    3.1225   13.0776 H         1 <0>         0.0888
     55 H23        -2.1744    4.4584   12.6369 H         1 <0>         0.0455
     56 H24         0.0509   -4.4241   -2.0429 H         1 <0>         0.4012
     57 H25        -0.0685   -6.8677   -0.2612 H         1 <0>         0.1400
     58 H26         1.6253   -6.4254   -2.8636 H         1 <0>         0.0976
     59 H27         1.4911   -7.9992   -1.9115 H         1 <0>         0.1045
     60 H28        -1.0139   -8.0266   -2.3100 H         1 <0>         0.1058
     61 H29        -0.8796   -6.4528   -3.2621 H         1 <0>         0.0979
@<TRIPOS>BOND
     1    1    2 1
     2    1   33 1
     3    1   34 1
     4    1   35 1
     5    2    7 ar
     6    2    3 ar
     7    3    4 ar
     8    3   36 1
     9    4    5 ar
    10    4   37 1
    11    5    6 ar
    12    5   27 1
    13    6    7 ar
    14    6   38 1
    15    7    8 1
    16    8   13 ar
    17    8    9 ar
    18    9   10 ar
    19    9   39 1
    20   10   11 ar
    21   10   40 1
    22   11   17 ar
    23   11   12 ar
    24   12   13 ar
    25   12   14 ar
    26   13   41 1
    27   14   15 ar
    28   14   42 1
    29   15   16 ar
    30   16   17 ar
    31   16   18 1
    32   18   19 1
    33   18   43 1
    34   19   20 1
    35   19   44 1
    36   19   45 1
    37   20   21 1
    38   20   46 1
    39   20   47 1
    40   21   26 1
    41   21   22 1
    42   22   23 1
    43   22   48 1
    44   22   49 1
    45   23   24 1
    46   23   50 1
    47   23   51 1
    48   24   25 1
    49   25   26 1
    50   25   52 1
    51   25   53 1
    52   26   54 1
    53   26   55 1
    54   27   28 2
    55   27   29 am
    56   29   30 1
    57   29   56 1
    58   30   32 1
    59   30   31 1
    60   30   57 1
    61   31   32 1
    62   31   58 1
    63   31   59 1
    64   32   60 1
    65   32   61 1
@<TRIPOS>MOLECULE
CHEMBL494072__1
   62    66     0     0     0
SMALL
USER_CHARGES

@<TRIPOS>ATOM
      1 C1         -0.0184    1.5028    0.0103 C.3       1 <0>        -0.1264
      2 C2          0.0021   -0.0041    0.0020 C.ar      1 <0>        -0.0405
      3 C3          0.0057   -0.6865   -1.1992 C.ar      1 <0>        -0.1229
      4 C4          0.0244   -2.0665   -1.2155 C.ar      1 <0>        -0.0746
      5 C5          0.0393   -2.7811   -0.0156 C.ar      1 <0>        -0.1384
      6 C6          0.0357   -2.0972    1.1986 C.ar      1 <0>        -0.0389
      7 C7          0.0230   -0.7059    1.2067 C.ar      1 <0>        -0.0650
      8 C8          0.0258    0.0296    2.4952 C.ar      1 <0>        -0.0532
      9 C9          0.9442    1.0714    2.7002 C.ar      1 <0>        -0.0466
     10 C10         0.9685    1.7618    3.8710 C.ar      1 <0>        -0.1174
     11 C11         0.0659    1.4351    4.8952 C.ar      1 <0>         0.2103
     12 C12        -0.8667    0.3834    4.6979 C.ar      1 <0>        -0.1996
     13 C13        -0.8806   -0.3130    3.4827 C.ar      1 <0>        -0.0463
     14 C14        -1.7607    0.0771    5.7416 C.ar      1 <0>         0.2475
     15 N1         -1.6924    0.7789    6.8533 N.ar      1 <0>        -0.5687
     16 C15        -0.8042    1.7595    7.0044 C.ar      1 <0>         0.5615
     17 N2          0.0573    2.0909    6.0623 N.ar      1 <0>        -0.5574
     18 N3         -0.7844    2.4588    8.1975 N.pl3     1 <0>        -0.7042
     19 C16        -1.7283    2.1151    9.2638 C.3       1 <0>         0.1190
     20 C17        -1.4964    3.0330   10.4657 C.3       1 <0>        -0.0229
     21 N4         -2.4430    2.6883   11.5349 N.4       1 <0>        -0.3804
     22 C18        -3.8130    2.9743   11.0874 C.3       1 <0>        -0.0511
     23 C19        -4.7973    2.6141   12.2030 C.3       1 <0>         0.0368
     24 O1         -4.4648    3.3528   13.3818 O.3       1 <0>        -0.3561
     25 C20        -3.1302    3.1260   13.8438 C.3       1 <0>         0.0360
     26 C21        -2.1429    3.4870   12.7312 C.3       1 <0>        -0.0426
     27 C22         0.0583   -4.2595   -0.0336 C.2       1 <0>         0.5641
     28 O2          0.0712   -4.8798    1.0116 O.2       1 <0>        -0.5333
     29 N5          0.0613   -4.9191   -1.2088 N.am      1 <0>        -0.6977
     30 C23         0.0801   -6.3839   -1.2266 C.3       1 <0>         0.0751
     31 C24         1.0206   -7.0663   -2.2219 C.3       1 <0>        -0.1909
     32 C25        -0.4903   -7.0828   -2.4623 C.3       1 <0>        -0.1868
     33 H1          1.0042    1.8801    0.0026 H         1 <0>         0.0795
     34 H2         -0.5455    1.8639   -0.8728 H         1 <0>         0.0745
     35 H3         -0.5286    1.8543    0.9071 H         1 <0>         0.0722
     36 H4         -0.0065   -0.1378   -2.1294 H         1 <0>         0.1355
     37 H5          0.0271   -2.5946   -2.1576 H         1 <0>         0.1285
     38 H6          0.0472   -2.6448    2.1294 H         1 <0>         0.1393
     39 H7          1.6417    1.3278    1.9165 H         1 <0>         0.1398
     40 H8          1.6816    2.5604    4.0130 H         1 <0>         0.1432
     41 H9         -1.5889   -1.1119    3.3198 H         1 <0>         0.1411
     42 H10        -2.4864   -0.7154    5.6324 H         1 <0>         0.1828
     43 H11        -0.1454    3.1768    8.3282 H         1 <0>         0.4204
     44 H12        -2.7483    2.2422    8.9010 H         1 <0>         0.0869
     45 H13        -1.5759    1.0783    9.5637 H         1 <0>         0.0875
     46 H14        -0.4764    2.9058   10.8285 H         1 <0>         0.1408
     47 H15        -1.6488    4.0698   10.1658 H         1 <0>         0.1388
     48 H16        -3.9043    4.0342   10.8501 H         1 <0>         0.1412
     49 H17        -4.0367    2.3822   10.2000 H         1 <0>         0.1458
     50 H18        -5.8105    2.8655   11.8896 H         1 <0>         0.1433
     51 H19        -4.7348    1.5463   12.4128 H         1 <0>         0.0830
     52 H20        -2.9370    3.7478   14.7179 H         1 <0>         0.1434
     53 H21        -3.0107    2.0757   14.1098 H         1 <0>         0.0826
     54 H22        -1.1267    3.2756   13.0641 H         1 <0>         0.1445
     55 H23        -2.2347    4.5468   12.4933 H         1 <0>         0.1407
     56 H24         0.0509   -4.4241   -2.0429 H         1 <0>         0.4018
     57 H25        -0.0685   -6.8677   -0.2612 H         1 <0>         0.1401
     58 H26         1.6253   -6.4254   -2.8636 H         1 <0>         0.0982
     59 H27         1.4911   -7.9992   -1.9115 H         1 <0>         0.1054
     60 H28        -1.0139   -8.0266   -2.3100 H         1 <0>         0.1067
     61 H29        -0.8796   -6.4528   -3.2621 H         1 <0>         0.0985
     62 H30        -2.3588    1.7073   11.7555 H         1 <0>         0.4260
@<TRIPOS>BOND
     1    1    2 1
     2    1   33 1
     3    1   34 1
     4    1   35 1
     5    2    7 ar
     6    2    3 ar
     7    3    4 ar
     8    3   36 1
     9    4    5 ar
    10    4   37 1
    11    5    6 ar
    12    5   27 1
    13    6    7 ar
    14    6   38 1
    15    7    8 1
    16    8   13 ar
    17    8    9 ar
    18    9   10 ar
    19    9   39 1
    20   10   11 ar
    21   10   40 1
    22   11   17 ar
    23   11   12 ar
    24   12   13 ar
    25   12   14 ar
    26   13   41 1
    27   14   15 ar
    28   14   42 1
    29   15   16 ar
    30   16   17 ar
    31   16   18 1
    32   18   19 1
    33   18   43 1
    34   19   20 1
    35   19   44 1
    36   19   45 1
    37   20   21 1
    38   20   46 1
    39   20   47 1
    40   21   26 1
    41   21   22 1
    42   21   62 1
    43   22   23 1
    44   22   48 1
    45   22   49 1
    46   23   24 1
    47   23   50 1
    48   23   51 1
    49   24   25 1
    50   25   26 1
    51   25   52 1
    52   25   53 1
    53   26   54 1
    54   26   55 1
    55   27   28 2
    56   27   29 am
    57   29   30 1
    58   29   56 1
    59   30   32 1
    60   30   31 1
    61   30   57 1
    62   31   32 1
    63   31   58 1
    64   31   59 1
    65   32   60 1
    66   32   61 1
@<TRIPOS>MOLECULE
CHEMBL215863
   61    65     0     0     0
SMALL
USER_CHARGES

@<TRIPOS>ATOM
      1 C1         -0.0178    0.8623    0.3730 C.3       1 <0>        -0.1273
      2 C2         -0.0694   -0.6395    0.2594 C.ar      1 <0>        -0.0377
      3 C3         -0.1411   -1.2342   -0.9855 C.ar      1 <0>        -0.1228
      4 C4         -0.1888   -2.6090   -1.0982 C.ar      1 <0>        -0.0780
      5 C5         -0.1643   -3.4071    0.0478 C.ar      1 <0>        -0.1430
      6 C6         -0.0916   -2.8117    1.3058 C.ar      1 <0>        -0.0372
      7 C7         -0.0390   -1.4254    1.4109 C.ar      1 <0>        -0.0539
      8 C8          0.0442   -0.7841    2.7462 C.ar      1 <0>        -0.0707
      9 C9          1.0175    0.1984    2.9872 C.ar      1 <0>        -0.0513
     10 C10         1.1160    0.8021    4.2012 C.ar      1 <0>        -0.1169
     11 C11         0.2355    0.4444    5.2344 C.ar      1 <0>         0.2138
     12 C12        -0.7525   -0.5476    5.0007 C.ar      1 <0>        -0.2070
     13 C13        -0.8419   -1.1552    3.7419 C.ar      1 <0>        -0.0382
     14 C14        -1.6229   -0.8868    6.0543 C.ar      1 <0>         0.2414
     15 N1         -1.4820   -0.2695    7.2085 N.ar      1 <0>        -0.5479
     16 C15        -0.5434    0.6569    7.3928 C.ar      1 <0>         0.5664
     17 N2          0.2993    1.0153    6.4434 N.ar      1 <0>        -0.5630
     18 N3         -0.4484    1.2689    8.6308 N.pl3     1 <0>        -0.6356
     19 C16        -1.3731    0.9641    9.6341 C.ar      1 <0>         0.1563
     20 C17        -1.8625   -0.3298    9.7598 C.ar      1 <0>        -0.1134
     21 C18        -2.7759   -0.6275   10.7519 C.ar      1 <0>        -0.1025
     22 C19        -3.2037    0.3609   11.6194 C.ar      1 <0>        -0.1357
     23 C20        -2.7187    1.6501   11.4967 C.ar      1 <0>        -0.1008
     24 C21        -1.8001    1.9531   10.5110 C.ar      1 <0>        -0.1466
     25 C22        -0.2159   -4.8796   -0.0734 C.2       1 <0>         0.5640
     26 O1         -0.1945   -5.5727    0.9251 O.2       1 <0>        -0.5125
     27 N4         -0.2866   -5.4535   -1.2908 N.am      1 <0>        -0.6670
     28 C23        -0.4171   -6.8413   -1.4030 C.ar      1 <0>         0.1424
     29 C24         0.1998   -7.6755   -0.4792 C.ar      1 <0>        -0.0842
     30 C25         0.0686   -9.0454   -0.5926 C.ar      1 <0>        -0.1066
     31 C26        -0.6760   -9.5872   -1.6245 C.ar      1 <0>        -0.0808
     32 C27        -1.2908   -8.7598   -2.5460 C.ar      1 <0>        -0.1697
     33 C28        -1.1683   -7.3885   -2.4349 C.ar      1 <0>        -0.0582
     34 C29        -1.8444   -6.4872   -3.4358 C.3       1 <0>        -0.1393
     35 C30        -2.1003   -9.3547   -3.6694 C.3       1 <0>         0.5116
     36 F1         -2.0822  -10.7500   -3.5692 F         1 <0>        -0.1747
     37 F2         -3.4201   -8.8982   -3.5856 F         1 <0>        -0.1743
     38 F3         -1.5501   -8.9680   -4.8961 F         1 <0>        -0.1748
     39 H1          1.0207    1.1928    0.3517 H         1 <0>         0.0798
     40 H2         -0.5583    1.3086   -0.4617 H         1 <0>         0.0732
     41 H3         -0.4784    1.1718    1.3111 H         1 <0>         0.0754
     42 H4         -0.1602   -0.6208   -1.8742 H         1 <0>         0.1352
     43 H5         -0.2454   -3.0683   -2.0741 H         1 <0>         0.1267
     44 H6         -0.0728   -3.4241    2.1952 H         1 <0>         0.1408
     45 H7          1.6981    0.4784    2.1968 H         1 <0>         0.1358
     46 H8          1.8708    1.5557    4.3707 H         1 <0>         0.1413
     47 H9         -1.5921   -1.9085    3.5517 H         1 <0>         0.1381
     48 H10        -2.3888   -1.6360    5.9186 H         1 <0>         0.1814
     49 H11         0.2597    1.9093    8.8022 H         1 <0>         0.4244
     50 H12        -1.5294   -1.1020    9.0822 H         1 <0>         0.1391
     51 H13        -3.1569   -1.6333   10.8502 H         1 <0>         0.1249
     52 H14        -3.9183    0.1255   12.3941 H         1 <0>         0.1227
     53 H15        -3.0551    2.4198   12.1756 H         1 <0>         0.1258
     54 H16        -1.4181    2.9591   10.4187 H         1 <0>         0.1240
     55 H17        -0.2470   -4.9039   -2.0891 H         1 <0>         0.4125
     56 H18         0.7816   -7.2530    0.3267 H         1 <0>         0.1501
     57 H19         0.5482   -9.6944    0.1251 H         1 <0>         0.1405
     58 H20        -0.7770  -10.6590   -1.7110 H         1 <0>         0.1411
     59 H21        -1.1692   -6.3006   -4.2709 H         1 <0>         0.0847
     60 H22        -2.7517   -6.9673   -3.8023 H         1 <0>         0.0831
     61 H23        -2.1012   -5.5417   -2.9580 H         1 <0>         0.0750
@<TRIPOS>BOND
     1    1    2 1
     2    1   39 1
     3    1   40 1
     4    1   41 1
     5    2    7 ar
     6    2    3 ar
     7    3    4 ar
     8    3   42 1
     9    4    5 ar
    10    4   43 1
    11    5    6 ar
    12    5   25 1
    13    6    7 ar
    14    6   44 1
    15    7    8 1
    16    8   13 ar
    17    8    9 ar
    18    9   10 ar
    19    9   45 1
    20   10   11 ar
    21   10   46 1
    22   11   17 ar
    23   11   12 ar
    24   12   13 ar
    25   12   14 ar
    26   13   47 1
    27   14   15 ar
    28   14   48 1
    29   15   16 ar
    30   16   17 ar
    31   16   18 1
    32   18   19 1
    33   18   49 1
    34   19   24 ar
    35   19   20 ar
    36   20   21 ar
    37   20   50 1
    38   21   22 ar
    39   21   51 1
    40   22   23 ar
    41   22   52 1
    42   23   24 ar
    43   23   53 1
    44   24   54 1
    45   25   26 2
    46   25   27 am
    47   27   28 1
    48   27   55 1
    49   28   33 ar
    50   28   29 ar
    51   29   30 ar
    52   29   56 1
    53   30   31 ar
    54   30   57 1
    55   31   32 ar
    56   31   58 1
    57   32   33 ar
    58   32   35 1
    59   33   34 1
    60   34   59 1
    61   34   60 1
    62   34   61 1
    63   35   36 1
    64   35   37 1
    65   35   38 1
@<TRIPOS>MOLECULE
CHEMBL271099
   60    63     0     0     0
SMALL
USER_CHARGES

@<TRIPOS>ATOM
      1 C1          0.0592    1.9020   -0.1028 C.3       1 <0>        -0.1224
      2 C2          0.0787    0.3953   -0.0795 C.ar      1 <0>        -0.0799
      3 C3          0.1151   -0.3116   -1.2671 C.ar      1 <0>        -0.1077
      4 C4          0.1332   -1.6912   -1.2540 C.ar      1 <0>        -0.0956
      5 C5          0.1151   -2.3781   -0.0384 C.ar      1 <0>        -0.1274
      6 C6          0.0788   -1.6650    1.1596 C.ar      1 <0>        -0.0524
      7 C7          0.0657   -0.2787    1.1357 C.ar      1 <0>         0.1427
      8 N1          0.0346    0.4413    2.3346 N.am      1 <0>        -0.6721
      9 C8         -0.6473   -0.0405    3.3925 C.2       1 <0>         0.5769
     10 O1         -1.1668   -1.1387    3.3323 O.2       1 <0>        -0.4925
     11 C9         -0.7636    0.7625    4.6212 C.ar      1 <0>        -0.3251
     12 C10        -0.1783    2.0310    4.7092 C.ar      1 <0>         0.2589
     13 N2         -0.3052    2.7195    5.8282 N.ar      1 <0>        -0.5812
     14 C11        -0.9757    2.2278    6.8630 C.ar      1 <0>         0.6172
     15 N3         -1.5461    1.0323    6.8266 N.ar      1 <0>        -0.6145
     16 C12        -1.4723    0.2774    5.7389 C.ar      1 <0>         0.4590
     17 O2         -2.0621   -0.9396    5.7045 O.3       1 <0>        -0.2035
     18 C13        -2.8196   -1.3118    6.7697 C.ar      1 <0>         0.0829
     19 C14        -2.4203   -2.3727    7.5696 C.ar      1 <0>        -0.1100
     20 C15        -3.1918   -2.7488    8.6520 C.ar      1 <0>        -0.1053
     21 C16        -4.3612   -2.0688    8.9385 C.ar      1 <0>        -0.1150
     22 C17        -4.7617   -1.0115    8.1425 C.ar      1 <0>        -0.1063
     23 C18        -3.9907   -0.6278    7.0624 C.ar      1 <0>        -0.1129
     24 N4         -1.0815    2.9843    8.0116 N.pl3     1 <0>        -0.6860
     25 C19        -0.4590    4.3089    8.0762 C.3       1 <0>         0.1001
     26 C20         0.1338   -3.8561   -0.0214 C.2       1 <0>         0.5610
     27 O3          0.1180   -4.4521    1.0380 O.2       1 <0>        -0.5032
     28 N5          0.1685   -4.5430   -1.1805 N.am      1 <0>        -0.6717
     29 C21         0.0698   -5.9380   -1.1699 C.ar      1 <0>         0.1495
     30 C22         0.7755   -6.6928   -2.0983 C.ar      1 <0>        -0.1131
     31 C23         0.6758   -8.0700   -2.0851 C.ar      1 <0>        -0.0987
     32 C24        -0.1255   -8.6979   -1.1489 C.ar      1 <0>        -0.0882
     33 C25        -0.8295   -7.9495   -0.2237 C.ar      1 <0>        -0.1620
     34 C26        -0.7294   -6.5719   -0.2275 C.ar      1 <0>        -0.0716
     35 C27        -1.7022   -8.6379    0.7939 C.3       1 <0>         0.5088
     36 F1         -1.6374  -10.0224    0.6036 F         1 <0>        -0.1765
     37 F2         -1.2548   -8.3228    2.0814 F         1 <0>        -0.1720
     38 F3         -3.0247   -8.2077    0.6415 F         1 <0>        -0.1756
     39 H1          1.0819    2.2788   -0.0899 H         1 <0>         0.0785
     40 H2         -0.4431    2.2449   -1.0074 H         1 <0>         0.0773
     41 H3         -0.4754    2.2720    0.7721 H         1 <0>         0.0678
     42 H4          0.1292    0.2178   -2.2083 H         1 <0>         0.1362
     43 H5          0.1609   -2.2398   -2.1839 H         1 <0>         0.1274
     44 H6          0.0646   -2.1907    2.1029 H         1 <0>         0.1574
     45 H7          0.5039    1.2874    2.4045 H         1 <0>         0.4086
     46 H8          0.3696    2.4405    3.8734 H         1 <0>         0.1775
     47 H9         -1.5071   -2.9044    7.3461 H         1 <0>         0.1318
     48 H10        -2.8816   -3.5747    9.2748 H         1 <0>         0.1324
     49 H11        -4.9630   -2.3644    9.7851 H         1 <0>         0.1285
     50 H12        -5.6758   -0.4824    8.3680 H         1 <0>         0.1290
     51 H13        -4.3016    0.2010    6.4436 H         1 <0>         0.1223
     52 H14        -1.5680    2.6392    8.7765 H         1 <0>         0.4198
     53 H15        -0.6477    4.7517    9.0542 H         1 <0>         0.0811
     54 H16         0.6158    4.2131    7.9220 H         1 <0>         0.0658
     55 H17        -0.8818    4.9473    7.3005 H         1 <0>         0.0659
     56 H18         0.2619   -4.0698   -2.0221 H         1 <0>         0.4136
     57 H19         1.4011   -6.2030   -2.8298 H         1 <0>         0.1371
     58 H20         1.2239   -8.6574   -2.8068 H         1 <0>         0.1413
     59 H21        -0.2017   -9.7752   -1.1407 H         1 <0>         0.1412
     60 H22        -1.2755   -5.9881    0.4987 H         1 <0>         0.1452
@<TRIPOS>BOND
     1    1    2 1
     2    1   39 1
     3    1   40 1
     4    1   41 1
     5    2    7 ar
     6    2    3 ar
     7    3    4 ar
     8    3   42 1
     9    4    5 ar
    10    4   43 1
    11    5    6 ar
    12    5   26 1
    13    6    7 ar
    14    6   44 1
    15    7    8 1
    16    8    9 am
    17    8   45 1
    18    9   10 2
    19    9   11 1
    20   11   16 ar
    21   11   12 ar
    22   12   13 ar
    23   12   46 1
    24   13   14 ar
    25   14   15 ar
    26   14   24 1
    27   15   16 ar
    28   16   17 1
    29   17   18 1
    30   18   23 ar
    31   18   19 ar
    32   19   20 ar
    33   19   47 1
    34   20   21 ar
    35   20   48 1
    36   21   22 ar
    37   21   49 1
    38   22   23 ar
    39   22   50 1
    40   23   51 1
    41   24   25 1
    42   24   52 1
    43   25   53 1
    44   25   54 1
    45   25   55 1
    46   26   27 2
    47   26   28 am
    48   28   29 1
    49   28   56 1
    50   29   34 ar
    51   29   30 ar
    52   30   31 ar
    53   30   57 1
    54   31   32 ar
    55   31   58 1
    56   32   33 ar
    57   32   59 1
    58   33   34 ar
    59   33   35 1
    60   34   60 1
    61   35   36 1
    62   35   37 1
    63   35   38 1
@<TRIPOS>MOLECULE
CHEMBL379733
   84    88     0     0     0
SMALL
USER_CHARGES

@<TRIPOS>ATOM
      1 C1         -3.7048    5.0221    4.8416 C.3       1 <0>        -0.1114
      2 C2         -3.4608    4.9946    3.3547 C.ar      1 <0>        -0.0736
      3 C3         -4.1495    5.8581    2.5251 C.ar      1 <0>        -0.1159
      4 C4         -3.9258    5.8336    1.1608 C.ar      1 <0>        -0.0997
      5 C5         -3.0129    4.9450    0.6235 C.ar      1 <0>        -0.1155
      6 C6         -2.3216    4.0794    1.4490 C.ar      1 <0>        -0.0758
      7 C7         -2.5402    4.1060    2.8187 C.ar      1 <0>         0.0910
      8 O1         -1.8572    3.2591    3.6336 O.3       1 <0>        -0.2938
      9 C8         -2.3978    2.0518    3.8868 C.2       1 <0>         0.6615
     10 O2         -3.4651    1.7482    3.3917 O.2       1 <0>        -0.5187
     11 N1         -1.7550    1.1805    4.6893 N.am      1 <0>        -0.4851
     12 C9         -2.3674   -0.0335    5.0411 C.ar      1 <0>         0.0615
     13 C10        -2.1763   -1.1605    4.2558 C.ar      1 <0>        -0.0157
     14 C11        -2.7786   -2.3549    4.6017 C.ar      1 <0>        -0.2383
     15 C12        -3.5752   -2.4299    5.7351 C.ar      1 <0>         0.1884
     16 C13        -3.7689   -1.3059    6.5238 C.ar      1 <0>        -0.2430
     17 C14        -3.1624   -0.1082    6.1821 C.ar      1 <0>         0.1929
     18 O3         -3.3472    0.9939    6.9566 O.3       1 <0>        -0.2920
     19 C15        -4.1750    0.8437    8.1117 C.3       1 <0>         0.0231
     20 O4         -4.1670   -3.6065    6.0727 O.3       1 <0>        -0.3108
     21 C16        -3.9249   -4.7239    5.2153 C.3       1 <0>         0.0234
     22 C17        -0.4850    1.4836    5.1692 C.ar      1 <0>         0.4445
     23 C18         0.6473    1.1984    4.4046 C.ar      1 <0>        -0.2539
     24 C19         1.8888    1.5168    4.9212 C.ar      1 <0>         0.2001
     25 N2          1.9678    2.0791    6.1179 N.ar      1 <0>        -0.5538
     26 C20         0.8756    2.3385    6.8216 C.ar      1 <0>         0.5715
     27 N3         -0.3328    2.0536    6.3593 N.ar      1 <0>        -0.5431
     28 N4          0.9999    2.9273    8.0689 N.pl3     1 <0>        -0.6376
     29 C21         2.2571    3.3430    8.5248 C.ar      1 <0>         0.1552
     30 C22         3.1985    3.8238    7.6243 C.ar      1 <0>        -0.0752
     31 C23         4.4380    4.2336    8.0747 C.ar      1 <0>        -0.1170
     32 C24         4.7428    4.1649    9.4262 C.ar      1 <0>         0.0904
     33 C25         3.8030    3.6847   10.3263 C.ar      1 <0>        -0.1779
     34 C26         2.5610    3.2799    9.8783 C.ar      1 <0>        -0.1112
     35 O5          5.9638    4.5681    9.8688 O.3       1 <0>        -0.3282
     36 C27         6.2097    4.4699   11.2730 C.3       1 <0>         0.0261
     37 C28         7.6246    4.9654   11.5789 C.3       1 <0>        -0.0010
     38 N5          7.7200    6.3976   11.2666 N.4       1 <0>        -0.3840
     39 C29         9.1145    6.8349   11.4033 C.3       1 <0>        -0.0069
     40 C30         9.2334    8.3064   11.0009 C.3       1 <0>        -0.1468
     41 C31         8.3397    9.1529   11.9119 C.3       1 <0>        -0.1390
     42 C32         6.8998    8.6400   11.8177 C.3       1 <0>        -0.1455
     43 C33         6.8674    7.1561   12.1898 C.3       1 <0>        -0.0130
     44 C34        -1.3268    3.1112    0.8627 C.3       1 <0>        -0.1116
     45 H1         -3.0219    5.7317    5.3088 H         1 <0>         0.0743
     46 H2         -4.7334    5.3263    5.0354 H         1 <0>         0.0725
     47 H3         -3.5356    4.0283    5.2560 H         1 <0>         0.0632
     48 H4         -4.8636    6.5526    2.9423 H         1 <0>         0.1321
     49 H5         -4.4652    6.5095    0.5138 H         1 <0>         0.1318
     50 H6         -2.8403    4.9273   -0.4425 H         1 <0>         0.1329
     51 H7         -1.5566   -1.1044    3.3730 H         1 <0>         0.1392
     52 H8         -2.6294   -3.2314    3.9887 H         1 <0>         0.1415
     53 H9         -4.3894   -1.3650    7.4058 H         1 <0>         0.1457
     54 H10        -5.1730    0.5304    7.8053 H         1 <0>         0.0604
     55 H11        -3.7445    0.0907    8.7718 H         1 <0>         0.0586
     56 H12        -4.2389    1.7955    8.6391 H         1 <0>         0.1031
     57 H13        -2.8555   -4.9324    5.1834 H         1 <0>         0.0602
     58 H14        -4.4540   -5.5967    5.5979 H         1 <0>         0.1057
     59 H15        -4.2806   -4.4948    4.2108 H         1 <0>         0.0617
     60 H16         0.5553    0.7390    3.4316 H         1 <0>         0.1525
     61 H17         2.7850    1.3090    4.3554 H         1 <0>         0.1810
     62 H18         0.2162    3.0517    8.6268 H         1 <0>         0.4263
     63 H19         2.9614    3.8770    6.5720 H         1 <0>         0.1475
     64 H20         5.1704    4.6072    7.3744 H         1 <0>         0.1352
     65 H21         4.0411    3.6315   11.3784 H         1 <0>         0.1294
     66 H22         1.8278    2.9102   10.5798 H         1 <0>         0.1327
     67 H23         5.4861    5.0812   11.8123 H         1 <0>         0.0848
     68 H24         6.1129    3.4306   11.5870 H         1 <0>         0.1082
     69 H25         7.8442    4.8084   12.6349 H         1 <0>         0.1478
     70 H26         8.3421    4.4127   10.9725 H         1 <0>         0.1425
     71 H27         9.4325    6.7150   12.4390 H         1 <0>         0.1287
     72 H28         9.7497    6.2294   10.7567 H         1 <0>         0.1310
     73 H29        10.2692    8.6296   11.1048 H         1 <0>         0.1127
     74 H30         8.9158    8.4274    9.9652 H         1 <0>         0.0881
     75 H31         8.6886    9.0726   12.9415 H         1 <0>         0.0818
     76 H32         8.3771   10.1947   11.5934 H         1 <0>         0.0944
     77 H33         6.2676    9.2016   12.5054 H         1 <0>         0.1119
     78 H34         6.5339    8.7678   10.7989 H         1 <0>         0.0881
     79 H35         5.8436    6.7877   12.1239 H         1 <0>         0.1278
     80 H36         7.2333    7.0294   13.2087 H         1 <0>         0.1297
     81 H37        -0.3418    3.5770    0.8306 H         1 <0>         0.0773
     82 H38        -1.2846    2.2145    1.4810 H         1 <0>         0.0586
     83 H39        -1.6342    2.8416   -0.1477 H         1 <0>         0.0748
     84 H40         7.4115    6.5555   10.3189 H         1 <0>         0.4297
@<TRIPOS>BOND
     1    1    2 1
     2    1   45 1
     3    1   46 1
     4    1   47 1
     5    2    7 ar
     6    2    3 ar
     7    3    4 ar
     8    3   48 1
     9    4    5 ar
    10    4   49 1
    11    5    6 ar
    12    5   50 1
    13    6    7 ar
    14    6   44 1
    15    7    8 1
    16    8    9 1
    17    9   10 2
    18    9   11 am
    19   11   12 1
    20   11   22 1
    21   12   17 ar
    22   12   13 ar
    23   13   14 ar
    24   13   51 1
    25   14   15 ar
    26   14   52 1
    27   15   16 ar
    28   15   20 1
    29   16   17 ar
    30   16   53 1
    31   17   18 1
    32   18   19 1
    33   19   54 1
    34   19   55 1
    35   19   56 1
    36   20   21 1
    37   21   57 1
    38   21   58 1
    39   21   59 1
    40   22   27 ar
    41   22   23 ar
    42   23   24 ar
    43   23   60 1
    44   24   25 ar
    45   24   61 1
    46   25   26 ar
    47   26   27 ar
    48   26   28 1
    49   28   29 1
    50   28   62 1
    51   29   34 ar
    52   29   30 ar
    53   30   31 ar
    54   30   63 1
    55   31   32 ar
    56   31   64 1
    57   32   33 ar
    58   32   35 1
    59   33   34 ar
    60   33   65 1
    61   34   66 1
    62   35   36 1
    63   36   37 1
    64   36   67 1
    65   36   68 1
    66   37   38 1
    67   37   69 1
    68   37   70 1
    69   38   43 1
    70   38   39 1
    71   38   84 1
    72   39   40 1
    73   39   71 1
    74   39   72 1
    75   40   41 1
    76   40   73 1
    77   40   74 1
    78   41   42 1
    79   41   75 1
    80   41   76 1
    81   42   43 1
    82   42   77 1
    83   42   78 1
    84   43   79 1
    85   43   80 1
    86   44   81 1
    87   44   82 1
    88   44   83 1
@<TRIPOS>MOLECULE
CHEMBL494821
   50    53     0     0     0
SMALL
USER_CHARGES

@<TRIPOS>ATOM
      1 C1         -0.0184    1.5028    0.0103 C.3       1 <0>        -0.1269
      2 C2          0.0021   -0.0041    0.0020 C.2       1 <0>         0.0324
      3 C3          0.0061   -0.7071   -1.2074 C.2       1 <0>        -0.2281
      4 C4          0.0245   -2.0614   -1.2057 C.2       1 <0>         0.1392
      5 N1          0.0394   -2.7612   -0.0425 N.am      1 <0>        -0.4962
      6 C5          0.0367   -2.1293    1.1466 C.2       1 <0>         0.5231
      7 O1          0.0506   -2.7745    2.1817 O.2       1 <0>        -0.5378
      8 C6          0.0230   -0.7136    1.1927 C.2       1 <0>        -0.1878
      9 C7          0.0256   -0.0029    2.4922 C.ar      1 <0>        -0.0409
     10 C8          1.1212    0.8034    2.8435 C.ar      1 <0>        -0.0490
     11 C9          1.1493    1.4660    4.0298 C.ar      1 <0>        -0.1233
     12 C10         0.0725    1.3494    4.9231 C.ar      1 <0>         0.2138
     13 C11        -1.0398    0.5377    4.5780 C.ar      1 <0>        -0.2111
     14 C12        -1.0544   -0.1339    3.3492 C.ar      1 <0>        -0.0269
     15 C13        -2.1059    0.4394    5.4926 C.ar      1 <0>         0.2445
     16 N2         -2.0241    1.1039    6.6262 N.ar      1 <0>        -0.5644
     17 C14        -0.9649    1.8565    6.9175 C.ar      1 <0>         0.5689
     18 N3          0.0623    1.9863    6.1005 N.ar      1 <0>        -0.5738
     19 N4         -0.9412    2.5298    8.1257 N.pl3     1 <0>        -0.8197
     20 C15         0.0581   -4.2255   -0.0814 C.3       1 <0>         0.0887
     21 C16         1.5070   -4.7166   -0.1022 C.3       1 <0>        -0.1257
     22 C17         1.5266   -6.2460   -0.1429 C.3       1 <0>        -0.0882
     23 C18         0.9938   -6.8169    1.1874 C.3       1 <0>        -0.1246
     24 C19         1.8704   -8.0682    1.4420 C.3       1 <0>        -0.1261
     25 C20         3.2681   -7.6110    0.9560 C.3       1 <0>        -0.1263
     26 C21         2.9727   -6.7509   -0.2901 C.3       1 <0>        -0.1202
     27 H1          1.0042    1.8801    0.0026 H         1 <0>         0.0836
     28 H2         -0.5455    1.8639   -0.8728 H         1 <0>         0.0758
     29 H3         -0.5286    1.8543    0.9071 H         1 <0>         0.0760
     30 H4         -0.0059   -0.1692   -2.1439 H         1 <0>         0.1479
     31 H5          0.0270   -2.5936   -2.1455 H         1 <0>         0.1622
     32 H6          1.9531    0.8977    2.1613 H         1 <0>         0.1298
     33 H7          1.9993    2.0813    4.2852 H         1 <0>         0.1381
     34 H8         -1.8973   -0.7507    3.0744 H         1 <0>         0.1308
     35 H9         -2.9711   -0.1671    5.2691 H         1 <0>         0.1776
     36 H10        -1.6866    2.4483    8.7411 H         1 <0>         0.4144
     37 H11        -0.1792    3.0834    8.3576 H         1 <0>         0.4153
     38 H12        -0.4462   -4.6190    0.8011 H         1 <0>         0.1030
     39 H13        -0.4558   -4.5717   -0.9782 H         1 <0>         0.0907
     40 H14         2.0114   -4.3232   -0.9848 H         1 <0>         0.0670
     41 H15         2.0209   -4.3704    0.7945 H         1 <0>         0.0738
     42 H16         0.9194   -6.6049   -0.9740 H         1 <0>         0.0741
     43 H17         1.1207   -6.0921    1.9916 H         1 <0>         0.0718
     44 H18        -0.0545   -7.0991    1.0889 H         1 <0>         0.0647
     45 H19         1.8922   -8.3151    2.5034 H         1 <0>         0.0659
     46 H20         1.5150   -8.9148    0.8546 H         1 <0>         0.0662
     47 H21         3.7624   -7.0145    1.7228 H         1 <0>         0.0648
     48 H22         3.8797   -8.4726    0.6884 H         1 <0>         0.0645
     49 H23         3.0671   -7.3555   -1.1921 H         1 <0>         0.0645
     50 H24         3.6605   -5.9064   -0.3326 H         1 <0>         0.0640
@<TRIPOS>BOND
     1    1    2 1
     2    1   27 1
     3    1   28 1
     4    1   29 1
     5    2    8 2
     6    2    3 1
     7    3    4 2
     8    3   30 1
     9    4    5 1
    10    4   31 1
    11    5    6 am
    12    5   20 1
    13    6    7 2
    14    6    8 1
    15    8    9 1
    16    9   14 ar
    17    9   10 ar
    18   10   11 ar
    19   10   32 1
    20   11   12 ar
    21   11   33 1
    22   12   18 ar
    23   12   13 ar
    24   13   14 ar
    25   13   15 ar
    26   14   34 1
    27   15   16 ar
    28   15   35 1
    29   16   17 ar
    30   17   18 ar
    31   17   19 1
    32   19   36 1
    33   19   37 1
    34   20   21 1
    35   20   38 1
    36   20   39 1
    37   21   22 1
    38   21   40 1
    39   21   41 1
    40   22   26 1
    41   22   23 1
    42   22   42 1
    43   23   24 1
    44   23   43 1
    45   23   44 1
    46   24   25 1
    47   24   45 1
    48   24   46 1
    49   25   26 1
    50   25   47 1
    51   25   48 1
    52   26   49 1
    53   26   50 1
@<TRIPOS>MOLECULE
CHEMBL424906
   56    59     0     0     0
SMALL
USER_CHARGES

@<TRIPOS>ATOM
      1 C1         -1.8964    1.6675    0.2083 C.3       1 <0>        -0.1165
      2 C2         -1.4925    0.2275    0.0228 C.ar      1 <0>        -0.0814
      3 C3         -1.6742   -0.3895   -1.1999 C.ar      1 <0>        -0.1030
      4 C4         -1.3042   -1.7105   -1.3715 C.ar      1 <0>        -0.0974
      5 C5         -0.7512   -2.4193   -0.3204 C.ar      1 <0>        -0.1038
      6 C6         -0.5671   -1.8085    0.9053 C.ar      1 <0>        -0.0217
      7 C7         -0.9325   -0.4785    1.0788 C.ar      1 <0>         0.1324
      8 N1         -0.7419    0.1452    2.3165 N.am      1 <0>        -0.6648
      9 C8         -1.2146   -0.4292    3.4404 C.2       1 <0>         0.5986
     10 O1         -1.7179   -1.5368    3.3927 O.2       1 <0>        -0.4681
     11 C9         -1.1229    0.2779    4.7170 C.2       1 <0>        -0.2549
     12 C10        -1.5333   -0.1195    5.9820 C.2       1 <0>         0.1498
     13 N2         -1.3214    0.7297    6.9556 N.2       1 <0>        -0.5434
     14 C11        -0.7474    1.8998    6.7379 C.2       1 <0>         0.2394
     15 S1         -0.4447    1.8889    5.0825 S.3       1 <0>         0.2465
     16 N3         -0.4597    2.8931    7.6522 N.pl3     1 <0>        -0.5911
     17 C12        -0.6831    2.6762    9.0088 C.ar      1 <0>         0.4361
     18 C13        -1.0437    1.4096    9.4524 C.ar      1 <0>        -0.2057
     19 C14        -1.2637    1.2028   10.8045 C.ar      1 <0>         0.0665
     20 C15        -1.1152    2.2731   11.6715 C.ar      1 <0>        -0.2263
     21 C16        -0.7523    3.5144   11.1623 C.ar      1 <0>         0.4562
     22 N4         -0.5443    3.6780    9.8643 N.ar      1 <0>        -0.5301
     23 N5         -0.6010    4.5940   12.0246 N.pl3     1 <0>        -0.7157
     24 C17        -0.8237    4.4201   13.4621 C.3       1 <0>         0.1192
     25 C18        -0.5933    5.7522   14.1787 C.3       1 <0>        -0.1590
     26 C19        -0.8259    5.5706   15.6800 C.3       1 <0>         0.0983
     27 N6         -0.6052    6.8460   16.3661 N.pl3     1 <0>        -0.4154
     28 C20         0.5817    7.2999   16.8751 C.2       1 <0>         0.0234
     29 C21         0.3369    8.5086   17.4159 C.2       1 <0>         0.0114
     30 N7         -0.9639    8.7853   17.2420 N.pl3     1 <0>        -0.4725
     31 C22        -1.5335    7.7962   16.6094 C.cat     1 <0>         0.2910
     32 Cl1         0.1266   -2.6986    2.2245 Cl        1 <0>        -0.0456
     33 H1         -1.0567    2.3156   -0.0428 H         1 <0>         0.0769
     34 H2         -2.7391    1.8955   -0.4444 H         1 <0>         0.0789
     35 H3         -2.1854    1.8331    1.2461 H         1 <0>         0.0630
     36 H4         -2.1061    0.1608   -2.0227 H         1 <0>         0.1378
     37 H5         -1.4478   -2.1902   -2.3284 H         1 <0>         0.1401
     38 H6         -0.4632   -3.4511   -0.4578 H         1 <0>         0.1412
     39 H7         -0.2697    0.9910    2.3657 H         1 <0>         0.4075
     40 H8         -2.0024   -1.0770    6.1538 H         1 <0>         0.2064
     41 H9         -0.1018    3.7422    7.3493 H         1 <0>         0.4427
     42 H10        -1.1518    0.5956    8.7509 H         1 <0>         0.2212
     43 H11        -1.5452    0.2281   11.1747 H         1 <0>         0.1800
     44 H12        -1.2798    2.1444   12.7310 H         1 <0>         0.1769
     45 H13        -0.3479    5.4625   11.6746 H         1 <0>         0.4169
     46 H14        -1.8475    4.0877   13.6336 H         1 <0>         0.0965
     47 H15        -0.1298    3.6743   13.8497 H         1 <0>         0.0966
     48 H16         0.4306    6.0846   14.0073 H         1 <0>         0.0949
     49 H17        -1.2872    6.4981   13.7911 H         1 <0>         0.0928
     50 H18        -1.8497    5.2382   15.8514 H         1 <0>         0.1293
     51 H19        -0.1320    4.8247   16.0676 H         1 <0>         0.1319
     52 H20         1.5317    6.7869   16.8483 H         1 <0>         0.2248
     53 H21         1.0611    9.1439   17.9042 H         1 <0>         0.2268
     54 H22        -2.5753    7.7448   16.3292 H         1 <0>         0.2612
     55 H23        -0.2879    4.5526    9.5321 H         1 <0>         0.4343
     56 H24        -1.4101    9.5947   17.5366 H         1 <0>         0.4688
@<TRIPOS>BOND
     1    1    2 1
     2    1   33 1
     3    1   34 1
     4    1   35 1
     5    2    7 ar
     6    2    3 ar
     7    3    4 ar
     8    3   36 1
     9    4    5 ar
    10    4   37 1
    11    5    6 ar
    12    5   38 1
    13    6    7 ar
    14    6   32 1
    15    7    8 1
    16    8    9 am
    17    8   39 1
    18    9   10 2
    19    9   11 1
    20   11   15 1
    21   11   12 2
    22   12   13 1
    23   12   40 1
    24   13   14 2
    25   14   15 1
    26   14   16 1
    27   16   17 1
    28   16   41 1
    29   17   22 ar
    30   17   18 ar
    31   18   19 ar
    32   18   42 1
    33   19   20 ar
    34   19   43 1
    35   20   21 ar
    36   20   44 1
    37   21   22 ar
    38   21   23 1
    39   22   55 1
    40   23   24 1
    41   23   45 1
    42   24   25 1
    43   24   46 1
    44   24   47 1
    45   25   26 1
    46   25   48 1
    47   25   49 1
    48   26   27 1
    49   26   50 1
    50   26   51 1
    51   27   31 1
    52   27   28 1
    53   28   29 2
    54   28   52 1
    55   29   30 1
    56   29   53 1
    57   30   31 2
    58   30   56 1
    59   31   54 1
@<TRIPOS>MOLECULE
CHEMBL424906__1
   55    58     0     0     0
SMALL
USER_CHARGES

@<TRIPOS>ATOM
      1 C1         -1.8964    1.6675    0.2083 C.3       1 <0>        -0.1169
      2 C2         -1.4925    0.2275    0.0228 C.ar      1 <0>        -0.0817
      3 C3         -1.6742   -0.3895   -1.1999 C.ar      1 <0>        -0.1035
      4 C4         -1.3042   -1.7105   -1.3715 C.ar      1 <0>        -0.0992
      5 C5         -0.7512   -2.4193   -0.3204 C.ar      1 <0>        -0.1045
      6 C6         -0.5671   -1.8085    0.9053 C.ar      1 <0>        -0.0221
      7 C7         -0.9325   -0.4785    1.0788 C.ar      1 <0>         0.1350
      8 N1         -0.7419    0.1452    2.3165 N.am      1 <0>        -0.6664
      9 C8         -1.2146   -0.4292    3.4404 C.2       1 <0>         0.6015
     10 O1         -1.7179   -1.5368    3.3927 O.2       1 <0>        -0.4715
     11 C9         -1.1229    0.2779    4.7170 C.2       1 <0>        -0.2642
     12 C10        -1.5333   -0.1195    5.9820 C.2       1 <0>         0.1540
     13 N2         -1.3214    0.7297    6.9556 N.2       1 <0>        -0.5461
     14 C11        -0.7474    1.8998    6.7379 C.2       1 <0>         0.2521
     15 S1         -0.4447    1.8889    5.0825 S.3       1 <0>         0.2372
     16 N3         -0.4597    2.8931    7.6522 N.pl3     1 <0>        -0.5943
     17 C12        -0.6831    2.6762    9.0088 C.ar      1 <0>         0.4293
     18 C13        -1.0437    1.4096    9.4524 C.ar      1 <0>        -0.2100
     19 C14        -1.2637    1.2028   10.8045 C.ar      1 <0>         0.0645
     20 C15        -1.1152    2.2731   11.6715 C.ar      1 <0>        -0.2258
     21 C16        -0.7523    3.5144   11.1623 C.ar      1 <0>         0.4617
     22 N4         -0.5443    3.6780    9.8643 N.ar      1 <0>        -0.5318
     23 N5         -0.6010    4.5940   12.0246 N.pl3     1 <0>        -0.7053
     24 C17        -0.8237    4.4201   13.4621 C.3       1 <0>         0.1163
     25 C18        -0.5933    5.7522   14.1787 C.3       1 <0>        -0.1536
     26 C19        -0.8259    5.5706   15.6800 C.3       1 <0>         0.1113
     27 N6         -0.6052    6.8460   16.3661 N.pl3     1 <0>        -0.4674
     28 C20         0.5816    7.2997   16.8755 C.2       1 <0>        -0.0597
     29 C21         0.3368    8.5085   17.4162 C.2       1 <0>        -0.0209
     30 N7         -0.9639    8.7855   17.2417 N.2       1 <0>        -0.4887
     31 C22        -1.5334    7.7964   16.6090 C.2       1 <0>         0.1828
     32 Cl1         0.1266   -2.6986    2.2245 Cl        1 <0>        -0.0450
     33 H1         -1.0567    2.3156   -0.0428 H         1 <0>         0.0769
     34 H2         -2.7391    1.8955   -0.4444 H         1 <0>         0.0784
     35 H3         -2.1854    1.8331    1.2461 H         1 <0>         0.0641
     36 H4         -2.1061    0.1608   -2.0227 H         1 <0>         0.1370
     37 H5         -1.4478   -2.1902   -2.3284 H         1 <0>         0.1390
     38 H6         -0.4632   -3.4511   -0.4578 H         1 <0>         0.1404
     39 H7         -0.2697    0.9910    2.3657 H         1 <0>         0.4080
     40 H8         -2.0024   -1.0770    6.1538 H         1 <0>         0.2047
     41 H9         -0.1018    3.7422    7.3493 H         1 <0>         0.4421
     42 H10        -1.1518    0.5956    8.7509 H         1 <0>         0.2188
     43 H11        -1.5452    0.2281   11.1747 H         1 <0>         0.1780
     44 H12        -1.2798    2.1444   12.7310 H         1 <0>         0.1782
     45 H13        -0.3479    5.4625   11.6746 H         1 <0>         0.4178
     46 H14        -1.8475    4.0877   13.6336 H         1 <0>         0.0941
     47 H15        -0.1298    3.6743   13.8497 H         1 <0>         0.0934
     48 H16         0.4306    6.0846   14.0073 H         1 <0>         0.0858
     49 H17        -1.2872    6.4981   13.7911 H         1 <0>         0.0866
     50 H18        -1.8497    5.2382   15.8514 H         1 <0>         0.1021
     51 H19        -0.1320    4.8247   16.0676 H         1 <0>         0.0997
     52 H20         1.5315    6.7865   16.8491 H         1 <0>         0.1756
     53 H21         1.0610    9.1436   17.9047 H         1 <0>         0.1727
     54 H22        -2.5751    7.7452   16.3284 H         1 <0>         0.2052
     55 H23        -0.2879    4.5526    9.5321 H         1 <0>         0.4341
@<TRIPOS>BOND
     1    1    2 1
     2    1   33 1
     3    1   34 1
     4    1   35 1
     5    2    7 ar
     6    2    3 ar
     7    3    4 ar
     8    3   36 1
     9    4    5 ar
    10    4   37 1
    11    5    6 ar
    12    5   38 1
    13    6    7 ar
    14    6   32 1
    15    7    8 1
    16    8    9 am
    17    8   39 1
    18    9   10 2
    19    9   11 1
    20   11   15 1
    21   11   12 2
    22   12   13 1
    23   12   40 1
    24   13   14 2
    25   14   15 1
    26   14   16 1
    27   16   17 1
    28   16   41 1
    29   17   22 ar
    30   17   18 ar
    31   18   19 ar
    32   18   42 1
    33   19   20 ar
    34   19   43 1
    35   20   21 ar
    36   20   44 1
    37   21   22 ar
    38   21   23 1
    39   22   55 1
    40   23   24 1
    41   23   45 1
    42   24   25 1
    43   24   46 1
    44   24   47 1
    45   25   26 1
    46   25   48 1
    47   25   49 1
    48   26   27 1
    49   26   50 1
    50   26   51 1
    51   27   31 1
    52   27   28 1
    53   28   29 2
    54   28   52 1
    55   29   30 1
    56   29   53 1
    57   30   31 2
    58   31   54 1
@<TRIPOS>MOLECULE
CHEMBL424906__2
   54    57     0     0     0
SMALL
USER_CHARGES

@<TRIPOS>ATOM
      1 C1          3.3392    6.6626    1.8698 C.3       1 <0>        -0.1165
      2 C2          2.6244    7.9850    1.9760 C.ar      1 <0>        -0.0852
      3 C3          2.9401    9.0132    1.1088 C.ar      1 <0>        -0.1055
      4 C4          2.2852   10.2269    1.2051 C.ar      1 <0>        -0.1071
      5 C5          1.3120   10.4167    2.1693 C.ar      1 <0>        -0.1065
      6 C6          0.9915    9.3929    3.0402 C.ar      1 <0>        -0.0243
      7 C7          1.6441    8.1694    2.9416 C.ar      1 <0>         0.1460
      8 N1          1.3182    7.1283    3.8175 N.am      1 <0>        -0.6734
      9 C8          1.3154    7.3430    5.1480 C.2       1 <0>         0.6134
     10 O1          1.4971    8.4653    5.5840 O.2       1 <0>        -0.4918
     11 C9          1.0942    6.2282    6.0680 C.2       1 <0>        -0.3127
     12 C10         1.0452    6.2198    7.4551 C.2       1 <0>         0.1716
     13 N2          0.8280    5.0601    8.0223 N.2       1 <0>        -0.5245
     14 C11         0.6652    3.9615    7.3064 C.2       1 <0>         0.3169
     15 S1          0.8043    4.5012    5.7184 S.3       1 <0>         0.1287
     16 N3          0.4315    2.6770    7.7544 N.pl3     1 <0>        -0.5944
     17 C12         0.2332    2.4385    9.1113 C.ar      1 <0>         0.4124
     18 C13        -0.1130    1.1635    9.5420 C.ar      1 <0>        -0.2628
     19 C14        -0.3080    0.9352   10.8944 C.ar      1 <0>        -0.0038
     20 C15        -0.1497    1.9931   11.7748 C.ar      1 <0>        -0.2683
     21 C16         0.1977    3.2439   11.2782 C.ar      1 <0>         0.4369
     22 N4          0.3819    3.4281    9.9793 N.ar      1 <0>        -0.5307
     23 N5          0.3586    4.3112   12.1540 N.pl3     1 <0>        -0.7221
     24 C17         0.1622    4.1145   13.5923 C.3       1 <0>         0.1335
     25 C18         0.3984    5.4368   14.3248 C.3       1 <0>        -0.1488
     26 C19         0.1932    5.2314   15.8270 C.3       1 <0>         0.1098
     27 N6          0.4193    6.4975   16.5284 N.pl3     1 <0>        -0.4613
     28 C20         1.6126    6.9499   17.0237 C.2       1 <0>        -0.0572
     29 C21         1.3712    8.1491   17.5869 C.2       1 <0>        -0.0280
     30 N7          0.0662    8.4216   17.4395 N.2       1 <0>        -0.4944
     31 C22        -0.5093    7.4390   16.8020 C.2       1 <0>         0.1820
     32 Cl1        -0.2296    9.6317    4.2507 Cl        1 <0>        -0.0435
     33 H1          2.7981    6.0112    1.1835 H         1 <0>         0.0755
     34 H2          4.3501    6.8249    1.4958 H         1 <0>         0.0753
     35 H3          3.3864    6.1951    2.8533 H         1 <0>         0.0675
     36 H4          3.6998    8.8686    0.3549 H         1 <0>         0.1337
     37 H5          2.5344   11.0289    0.5260 H         1 <0>         0.1351
     38 H6          0.8023   11.3661    2.2419 H         1 <0>         0.1370
     39 H7          1.0941    6.2520    3.4671 H         1 <0>         0.4086
     40 H8          1.1793    7.1210    8.0350 H         1 <0>         0.1853
     41 H9          0.4055    1.9405    7.1237 H         1 <0>         0.4390
     42 H10        -0.2292    0.3596    8.8302 H         1 <0>         0.1338
     43 H11        -0.5779   -0.0465   11.2547 H         1 <0>         0.1389
     44 H12        -0.2950    1.8475   12.8350 H         1 <0>         0.1318
     45 H13         0.6010    5.1862   11.8127 H         1 <0>         0.4084
     46 H14        -0.8567    3.7739   13.7767 H         1 <0>         0.0689
     47 H15         0.8667    3.3666   13.9563 H         1 <0>         0.0683
     48 H16         1.4173    5.7773   14.1405 H         1 <0>         0.0804
     49 H17        -0.3061    6.1847   13.9608 H         1 <0>         0.0811
     50 H18        -0.8257    4.8908   16.0114 H         1 <0>         0.0989
     51 H19         0.8977    4.4835   16.1910 H         1 <0>         0.0965
     52 H20         2.5646    6.4424   16.9729 H         1 <0>         0.1738
     53 H21         2.1006    8.7807   18.0721 H         1 <0>         0.1698
     54 H22        -1.5555    7.3864   16.5390 H         1 <0>         0.2038
@<TRIPOS>BOND
     1    1    2 1
     2    1   33 1
     3    1   34 1
     4    1   35 1
     5    2    7 ar
     6    2    3 ar
     7    3    4 ar
     8    3   36 1
     9    4    5 ar
    10    4   37 1
    11    5    6 ar
    12    5   38 1
    13    6    7 ar
    14    6   32 1
    15    7    8 1
    16    8    9 am
    17    8   39 1
    18    9   10 2
    19    9   11 1
    20   11   15 1
    21   11   12 2
    22   12   13 1
    23   12   40 1
    24   13   14 2
    25   14   15 1
    26   14   16 1
    27   16   17 1
    28   16   41 1
    29   17   22 ar
    30   17   18 ar
    31   18   19 ar
    32   18   42 1
    33   19   20 ar
    34   19   43 1
    35   20   21 ar
    36   20   44 1
    37   21   22 ar
    38   21   23 1
    39   23   24 1
    40   23   45 1
    41   24   25 1
    42   24   46 1
    43   24   47 1
    44   25   26 1
    45   25   48 1
    46   25   49 1
    47   26   27 1
    48   26   50 1
    49   26   51 1
    50   27   31 1
    51   27   28 1
    52   28   29 2
    53   28   52 1
    54   29   30 1
    55   29   53 1
    56   30   31 2
    57   31   54 1
@<TRIPOS>MOLECULE
CHEMBL424906__3
   55    58     0     0     0
SMALL
USER_CHARGES

@<TRIPOS>ATOM
      1 C1          3.3392    6.6626    1.8698 C.3       1 <0>        -0.1169
      2 C2          2.6244    7.9850    1.9760 C.ar      1 <0>        -0.0840
      3 C3          2.9401    9.0132    1.1088 C.ar      1 <0>        -0.1044
      4 C4          2.2852   10.2269    1.2051 C.ar      1 <0>        -0.1050
      5 C5          1.3120   10.4167    2.1693 C.ar      1 <0>        -0.1065
      6 C6          0.9915    9.3929    3.0402 C.ar      1 <0>        -0.0235
      7 C7          1.6441    8.1694    2.9416 C.ar      1 <0>         0.1433
      8 N1          1.3182    7.1283    3.8175 N.am      1 <0>        -0.6716
      9 C8          1.3154    7.3430    5.1480 C.2       1 <0>         0.6124
     10 O1          1.4971    8.4653    5.5840 O.2       1 <0>        -0.4927
     11 C9          1.0942    6.2282    6.0680 C.2       1 <0>        -0.3077
     12 C10         1.0452    6.2198    7.4551 C.2       1 <0>         0.1655
     13 N2          0.8280    5.0601    8.0223 N.2       1 <0>        -0.5264
     14 C11         0.6652    3.9615    7.3064 C.2       1 <0>         0.3104
     15 S1          0.8043    4.5012    5.7184 S.3       1 <0>         0.1416
     16 N3          0.4315    2.6770    7.7544 N.pl3     1 <0>        -0.5943
     17 C12         0.2332    2.4385    9.1113 C.ar      1 <0>         0.4159
     18 C13        -0.1130    1.1635    9.5420 C.ar      1 <0>        -0.2557
     19 C14        -0.3080    0.9352   10.8944 C.ar      1 <0>        -0.0028
     20 C15        -0.1497    1.9931   11.7748 C.ar      1 <0>        -0.2690
     21 C16         0.1977    3.2439   11.2782 C.ar      1 <0>         0.4322
     22 N4          0.3819    3.4281    9.9793 N.ar      1 <0>        -0.5284
     23 N5          0.3586    4.3112   12.1540 N.pl3     1 <0>        -0.7279
     24 C17         0.1622    4.1145   13.5923 C.3       1 <0>         0.1351
     25 C18         0.3984    5.4368   14.3248 C.3       1 <0>        -0.1546
     26 C19         0.1932    5.2314   15.8270 C.3       1 <0>         0.0963
     27 N6          0.4193    6.4975   16.5284 N.pl3     1 <0>        -0.4088
     28 C20         1.6127    6.9501   17.0233 C.2       1 <0>         0.0259
     29 C21         1.3712    8.1492   17.5866 C.2       1 <0>         0.0046
     30 N7          0.0661    8.4214   17.4398 N.pl3     1 <0>        -0.4759
     31 C22        -0.5094    7.4388   16.8024 C.cat     1 <0>         0.2892
     32 Cl1        -0.2296    9.6317    4.2507 Cl        1 <0>        -0.0463
     33 H1          2.7981    6.0112    1.1835 H         1 <0>         0.0765
     34 H2          4.3501    6.8249    1.4958 H         1 <0>         0.0763
     35 H3          3.3864    6.1951    2.8533 H         1 <0>         0.0665
     36 H4          3.6998    8.8686    0.3549 H         1 <0>         0.1351
     37 H5          2.5344   11.0289    0.5260 H         1 <0>         0.1364
     38 H6          0.8023   11.3661    2.2419 H         1 <0>         0.1375
     39 H7          1.0941    6.2520    3.4671 H         1 <0>         0.4089
     40 H8          1.1793    7.1210    8.0350 H         1 <0>         0.1841
     41 H9          0.4055    1.9405    7.1237 H         1 <0>         0.4408
     42 H10        -0.2292    0.3596    8.8302 H         1 <0>         0.1373
     43 H11        -0.5779   -0.0465   11.2547 H         1 <0>         0.1411
     44 H12        -0.2950    1.8475   12.8350 H         1 <0>         0.1301
     45 H13         0.6010    5.1862   11.8127 H         1 <0>         0.4080
     46 H14        -0.8567    3.7739   13.7767 H         1 <0>         0.0721
     47 H15         0.8667    3.3666   13.9563 H         1 <0>         0.0724
     48 H16         1.4173    5.7773   14.1405 H         1 <0>         0.0899
     49 H17        -0.3061    6.1847   13.9608 H         1 <0>         0.0878
     50 H18        -0.8257    4.8908   16.0114 H         1 <0>         0.1264
     51 H19         0.8977    4.4835   16.1910 H         1 <0>         0.1291
     52 H20         2.5647    6.4428   16.9721 H         1 <0>         0.2234
     53 H21         2.1007    8.7810   18.0716 H         1 <0>         0.2243
     54 H22        -1.5557    7.3860   16.5398 H         1 <0>         0.2602
     55 H23        -0.3790    9.2238   17.7544 H         1 <0>         0.4659
@<TRIPOS>BOND
     1    1    2 1
     2    1   33 1
     3    1   34 1
     4    1   35 1
     5    2    7 ar
     6    2    3 ar
     7    3    4 ar
     8    3   36 1
     9    4    5 ar
    10    4   37 1
    11    5    6 ar
    12    5   38 1
    13    6    7 ar
    14    6   32 1
    15    7    8 1
    16    8    9 am
    17    8   39 1
    18    9   10 2
    19    9   11 1
    20   11   15 1
    21   11   12 2
    22   12   13 1
    23   12   40 1
    24   13   14 2
    25   14   15 1
    26   14   16 1
    27   16   17 1
    28   16   41 1
    29   17   22 ar
    30   17   18 ar
    31   18   19 ar
    32   18   42 1
    33   19   20 ar
    34   19   43 1
    35   20   21 ar
    36   20   44 1
    37   21   22 ar
    38   21   23 1
    39   23   24 1
    40   23   45 1
    41   24   25 1
    42   24   46 1
    43   24   47 1
    44   25   26 1
    45   25   48 1
    46   25   49 1
    47   26   27 1
    48   26   50 1
    49   26   51 1
    50   27   31 1
    51   27   28 1
    52   28   29 2
    53   28   52 1
    54   29   30 1
    55   29   53 1
    56   30   31 2
    57   30   55 1
    58   31   54 1
@<TRIPOS>MOLECULE
CHEMBL385055
   65    69     0     0     0
SMALL
USER_CHARGES

@<TRIPOS>ATOM
      1 C1          0.0320    1.5035    0.0085 C.3       1 <0>        -0.1268
      2 C2          0.0402   -0.0034    0.0007 C.ar      1 <0>        -0.0371
      3 C3          0.0401   -0.6861   -1.2004 C.ar      1 <0>        -0.1218
      4 C4          0.0476   -2.0662   -1.2164 C.ar      1 <0>        -0.0787
      5 C5          0.0553   -2.7807   -0.0162 C.ar      1 <0>        -0.1434
      6 C6          0.0554   -2.0963    1.1979 C.ar      1 <0>        -0.0365
      7 C7          0.0536   -0.7051    1.2056 C.ar      1 <0>        -0.0500
      8 C8          0.0604    0.0308    2.4939 C.ar      1 <0>        -0.0781
      9 C9          0.9869    1.0651    2.7000 C.ar      1 <0>        -0.0507
     10 C10         1.0151    1.7557    3.8706 C.ar      1 <0>        -0.1204
     11 C11         0.1083    1.4367    4.8936 C.ar      1 <0>         0.2184
     12 C12        -0.8325    0.3926    4.6951 C.ar      1 <0>        -0.2152
     13 C13        -0.8502   -0.3041    3.4801 C.ar      1 <0>        -0.0346
     14 C14        -1.7306    0.0938    5.7375 C.ar      1 <0>         0.2450
     15 N1         -1.6582    0.7954    6.8491 N.ar      1 <0>        -0.5584
     16 C15        -0.7624    1.7688    7.0013 C.ar      1 <0>         0.5697
     17 N2          0.1033    2.0928    6.0604 N.ar      1 <0>        -0.5745
     18 N3         -0.7389    2.4686    8.1940 N.pl3     1 <0>        -0.7000
     19 C16        -1.6876    2.1332    9.2588 C.3       1 <0>         0.1035
     20 C17         0.0628   -4.2589   -0.0337 C.2       1 <0>         0.5633
     21 O1          0.0695   -4.8791    1.0118 O.2       1 <0>        -0.5054
     22 N4          0.0622   -4.9189   -1.2088 N.am      1 <0>        -0.6626
     23 C18         0.1863   -6.3131   -1.2286 C.ar      1 <0>         0.1618
     24 C19         0.8055   -6.9715   -0.1761 C.ar      1 <0>        -0.0785
     25 C20         0.9268   -8.3479   -0.1978 C.ar      1 <0>        -0.1532
     26 C21         0.4325   -9.0731   -1.2667 C.ar      1 <0>        -0.0806
     27 C22        -0.1858   -8.4257   -2.3196 C.ar      1 <0>        -0.0871
     28 C23        -0.3173   -7.0449   -2.3037 C.ar      1 <0>         0.1389
     29 N5         -0.9491   -6.3871   -3.3667 N.am      1 <0>        -0.5969
     30 C24        -0.4661   -5.8340   -4.6253 C.3       1 <0>         0.1063
     31 C25        -1.8996   -5.4163   -4.9291 C.3       1 <0>        -0.1156
     32 C26        -2.2199   -6.0402   -3.6033 C.2       1 <0>         0.5330
     33 O2         -3.2496   -6.1791   -2.9774 O.2       1 <0>        -0.4868
     34 C27        -2.5208   -6.1477   -6.1208 C.3       1 <0>        -0.1274
     35 C28        -2.1089   -3.9014   -4.9756 C.3       1 <0>        -0.1279
     36 C29         1.6003   -9.0608    0.9464 C.3       1 <0>         0.5109
     37 F1          0.6467   -9.3936    1.9145 F         1 <0>        -0.1716
     38 F2          2.2118  -10.2271    0.4740 F         1 <0>        -0.1744
     39 F3          2.5675   -8.2237    1.5129 F         1 <0>        -0.1733
     40 H1          1.0576    1.8725    0.0022 H         1 <0>         0.0799
     41 H2         -0.4909    1.8687   -0.8754 H         1 <0>         0.0729
     42 H3         -0.4767    1.8594    0.9044 H         1 <0>         0.0761
     43 H4          0.0338   -0.1376   -2.1307 H         1 <0>         0.1354
     44 H5          0.0471   -2.5945   -2.1584 H         1 <0>         0.1224
     45 H6          0.0611   -2.6437    2.1289 H         1 <0>         0.1415
     46 H7          1.6877    1.3156    1.9173 H         1 <0>         0.1342
     47 H8          1.7345    2.5485    4.0135 H         1 <0>         0.1399
     48 H9         -1.5646   -1.0975    3.3165 H         1 <0>         0.1365
     49 H10        -2.4625   -0.6928    5.6275 H         1 <0>         0.1790
     50 H11        -0.0944    3.1814    8.3255 H         1 <0>         0.4167
     51 H12        -1.5443    1.0953    9.5595 H         1 <0>         0.0607
     52 H13        -1.5186    2.7862   10.1150 H         1 <0>         0.0776
     53 H14        -2.7059    2.2684    8.8941 H         1 <0>         0.0605
     54 H15        -0.0242   -4.4278   -2.0409 H         1 <0>         0.4117
     55 H16         1.1929   -6.4083    0.6600 H         1 <0>         0.1662
     56 H17         0.5303  -10.1486   -1.2789 H         1 <0>         0.1461
     57 H18        -0.5704   -8.9951   -3.1528 H         1 <0>         0.1443
     58 H19         0.2136   -4.9917   -4.4970 H         1 <0>         0.0914
     59 H20        -0.0791   -6.5880   -5.3108 H         1 <0>         0.0982
     60 H21        -2.5328   -7.2196   -5.9231 H         1 <0>         0.0630
     61 H22        -3.5408   -5.7947   -6.2721 H         1 <0>         0.0733
     62 H23        -1.9312   -5.9499   -7.0160 H         1 <0>         0.0768
     63 H24        -1.4766   -3.4709   -5.7522 H         1 <0>         0.0782
     64 H25        -3.1541   -3.6857   -5.1969 H         1 <0>         0.0749
     65 H26        -1.8449   -3.4684   -4.0107 H         1 <0>         0.0590
@<TRIPOS>BOND
     1    1    2 1
     2    1   40 1
     3    1   41 1
     4    1   42 1
     5    2    7 ar
     6    2    3 ar
     7    3    4 ar
     8    3   43 1
     9    4    5 ar
    10    4   44 1
    11    5    6 ar
    12    5   20 1
    13    6    7 ar
    14    6   45 1
    15    7    8 1
    16    8   13 ar
    17    8    9 ar
    18    9   10 ar
    19    9   46 1
    20   10   11 ar
    21   10   47 1
    22   11   17 ar
    23   11   12 ar
    24   12   13 ar
    25   12   14 ar
    26   13   48 1
    27   14   15 ar
    28   14   49 1
    29   15   16 ar
    30   16   17 ar
    31   16   18 1
    32   18   19 1
    33   18   50 1
    34   19   51 1
    35   19   52 1
    36   19   53 1
    37   20   21 2
    38   20   22 am
    39   22   23 1
    40   22   54 1
    41   23   28 ar
    42   23   24 ar
    43   24   25 ar
    44   24   55 1
    45   25   26 ar
    46   25   36 1
    47   26   27 ar
    48   26   56 1
    49   27   28 ar
    50   27   57 1
    51   28   29 1
    52   29   32 am
    53   29   30 1
    54   30   31 1
    55   30   58 1
    56   30   59 1
    57   31   32 1
    58   31   34 1
    59   31   35 1
    60   32   33 2
    61   34   60 1
    62   34   61 1
    63   34   62 1
    64   35   63 1
    65   35   64 1
    66   35   65 1
    67   36   37 1
    68   36   38 1
    69   36   39 1
@<TRIPOS>MOLECULE
CHEMBL248108
   63    68     0     0     0
SMALL
USER_CHARGES

@<TRIPOS>ATOM
      1 C1          1.3386    0.4266    0.6818 C.ar      1 <0>        -0.0923
      2 C2          2.0363    1.5805    0.3760 C.ar      1 <0>        -0.1113
      3 C3          3.3475    1.5031   -0.0544 C.ar      1 <0>        -0.0897
      4 C4          3.9625    0.2717   -0.1801 C.ar      1 <0>        -0.1264
      5 C5          3.2650   -0.8843    0.1258 C.ar      1 <0>         0.0994
      6 C6          1.9515   -0.8054    0.5573 C.ar      1 <0>        -0.1445
      7 F1          3.8650   -2.0885    0.0029 F         1 <0>        -0.1352
      8 C7          4.1065    2.7617   -0.3874 C.3       1 <0>         0.1803
      9 N1          4.7870    3.2535    0.8132 N.pl3     1 <0>        -0.3988
     10 C8          4.2557    4.1276    1.7279 C.ar      1 <0>         0.1294
     11 C9          3.0310    4.7828    1.8333 C.ar      1 <0>        -0.1247
     12 C10         2.7886    5.6150    2.8875 C.ar      1 <0>        -0.0516
     13 C11         3.7570    5.8214    3.8710 C.ar      1 <0>         0.1015
     14 C12         4.9790    5.1840    3.7908 C.ar      1 <0>        -0.0635
     15 C13         5.2398    4.3284    2.7143 C.ar      1 <0>        -0.1638
     16 C14         6.3868    3.5158    2.3218 C.2       1 <0>         0.0727
     17 N2          6.0803    2.9030    1.2141 N.2       1 <0>        -0.2404
     18 N3          3.4882    6.6796    4.9440 N.pl3     1 <0>        -0.6175
     19 C15         2.7404    7.8231    4.7431 C.2       1 <0>         0.5271
     20 C16         2.5414    8.7427    5.7984 C.2       1 <0>        -0.0815
     21 C17         2.9500    8.7886    7.1170 C.2       1 <0>        -0.1024
     22 C18         2.4294    9.9640    7.6610 C.2       1 <0>        -0.1773
     23 C19         1.7278   10.6008    6.6864 C.2       1 <0>         0.0594
     24 N4          1.7866    9.8742    5.5548 N.pl3     1 <0>        -0.2328
     25 N5          1.2545   10.0547    4.2704 N.2       1 <0>        -0.3535
     26 C20         1.4762    9.1667    3.3407 C.2       1 <0>         0.3329
     27 N6          2.2061    8.0743    3.5592 N.2       1 <0>        -0.6127
     28 C21         3.7951    7.7658    7.8315 C.3       1 <0>         0.1189
     29 N7          2.9631    6.6112    8.1956 N.3       1 <0>        -0.5422
     30 C22         1.9792    6.9747    9.2233 C.3       1 <0>         0.0567
     31 C23         1.0390    5.7931    9.4719 C.3       1 <0>        -0.1389
     32 C24         1.8580    4.5826    9.9284 C.3       1 <0>         0.0237
     33 C25         2.9070    4.2547    8.8623 C.3       1 <0>        -0.1392
     34 C26         3.7932    5.4809    8.6314 C.3       1 <0>         0.0506
     35 N8          0.9678    3.4287   10.1124 N.4       1 <0>        -0.6361
     36 H1          0.3155    0.4887    1.0224 H         1 <0>         0.1356
     37 H2          1.5562    2.5431    0.4732 H         1 <0>         0.1294
     38 H3          4.9868    0.2114   -0.5172 H         1 <0>         0.1394
     39 H4          1.4064   -1.7066    0.7966 H         1 <0>         0.1382
     40 H5          4.8439    2.5473   -1.1609 H         1 <0>         0.1084
     41 H6          3.4118    3.5203   -0.7478 H         1 <0>         0.1061
     42 H7          2.2724    4.6324    1.0795 H         1 <0>         0.1284
     43 H8          1.8367    6.1197    2.9613 H         1 <0>         0.1497
     44 H9          5.7278    5.3447    4.5523 H         1 <0>         0.1289
     45 H10         7.3214    3.4338    2.8567 H         1 <0>         0.1973
     46 H11         3.8271    6.4710    5.8286 H         1 <0>         0.4216
     47 H12         2.5606   10.3067    8.6767 H         1 <0>         0.1574
     48 H13         1.2059   11.5392    6.8018 H         1 <0>         0.1803
     49 H14         1.0566    9.3251    2.3582 H         1 <0>         0.2205
     50 H15         4.6024    7.4395    7.1758 H         1 <0>         0.0839
     51 H16         4.2165    8.2089    8.7338 H         1 <0>         0.0660
     52 H17         2.4971    7.2276   10.1485 H         1 <0>         0.0508
     53 H18         1.4007    7.8341    8.8845 H         1 <0>         0.1034
     54 H19         0.3186    6.0579   10.2459 H         1 <0>         0.0939
     55 H20         0.5105    5.5485    8.5505 H         1 <0>         0.0950
     56 H21         2.3557    4.8137   10.8702 H         1 <0>         0.1406
     57 H22         3.5213    3.4203    9.2007 H         1 <0>         0.0954
     58 H23         2.4080    3.9858    7.9312 H         1 <0>         0.0969
     59 H24         4.5321    5.2553    7.8625 H         1 <0>         0.0958
     60 H25         4.3025    5.7408    9.5593 H         1 <0>         0.0536
     61 H26         0.5099    3.2145    9.2391 H         1 <0>         0.4342
     62 H27         1.5083    2.6315   10.4131 H         1 <0>         0.4363
     63 H28         0.2737    3.6474   10.8112 H         1 <0>         0.4366
@<TRIPOS>BOND
     1    1    6 ar
     2    1    2 ar
     3    1   36 1
     4    2    3 ar
     5    2   37 1
     6    3    4 ar
     7    3    8 1
     8    4    5 ar
     9    4   38 1
    10    5    6 ar
    11    5    7 1
    12    6   39 1
    13    8    9 1
    14    8   40 1
    15    8   41 1
    16    9   17 1
    17    9   10 1
    18   10   15 ar
    19   10   11 ar
    20   11   12 ar
    21   11   42 1
    22   12   13 ar
    23   12   43 1
    24   13   14 ar
    25   13   18 1
    26   14   15 ar
    27   14   44 1
    28   15   16 1
    29   16   17 2
    30   16   45 1
    31   18   19 1
    32   18   46 1
    33   19   27 2
    34   19   20 1
    35   20   24 1
    36   20   21 2
    37   21   22 1
    38   21   28 1
    39   22   23 2
    40   22   47 1
    41   23   24 1
    42   23   48 1
    43   24   25 1
    44   25   26 2
    45   26   27 1
    46   26   49 1
    47   28   29 1
    48   28   50 1
    49   28   51 1
    50   29   34 1
    51   29   30 1
    52   30   31 1
    53   30   52 1
    54   30   53 1
    55   31   32 1
    56   31   54 1
    57   31   55 1
    58   32   33 1
    59   32   35 1
    60   32   56 1
    61   33   34 1
    62   33   57 1
    63   33   58 1
    64   34   59 1
    65   34   60 1
    66   35   61 1
    67   35   62 1
    68   35   63 1
@<TRIPOS>MOLECULE
CHEMBL322598
   60    64     0     0     0
SMALL
USER_CHARGES

@<TRIPOS>ATOM
      1 C1          2.5235   -1.2123    1.7689 C.3       1 <0>        -0.1123
      2 C2          1.3240   -1.3319    0.8645 C.ar      1 <0>        -0.0567
      3 C3          1.4163   -2.0438   -0.3159 C.ar      1 <0>        -0.1121
      4 C4          0.3166   -2.1548   -1.1464 C.ar      1 <0>        -0.0947
      5 C5         -0.8798   -1.5539   -0.7992 C.ar      1 <0>        -0.1141
      6 C6         -0.9793   -0.8399    0.3796 C.ar      1 <0>        -0.0191
      7 C7          0.1234   -0.7315    1.2195 C.ar      1 <0>         0.1542
      8 N1          0.0251   -0.0151    2.4162 N.pl3     1 <0>        -0.6499
      9 C8         -0.3649   -0.6581    3.5771 C.2       1 <0>         0.4984
     10 C9         -0.4741    0.0902    4.8272 C.2       1 <0>        -0.0789
     11 C10        -0.2686    1.4006    5.1832 C.2       1 <0>         0.0388
     12 N2         -0.5286    1.5071    6.4885 N.2       1 <0>        -0.4691
     13 C11        -0.8841    0.3402    6.9667 C.2       1 <0>         0.1903
     14 N3         -0.8658   -0.5693    5.9774 N.pl3     1 <0>        -0.3520
     15 C12        -1.1446   -1.9302    5.9082 C.ar      1 <0>         0.0302
     16 C13        -1.5409   -2.6213    7.0456 C.ar      1 <0>        -0.1562
     17 C14        -1.8173   -3.9739    6.9741 C.ar      1 <0>         0.0728
     18 C15        -1.6998   -4.6515    5.7582 C.ar      1 <0>         0.2239
     19 C16        -1.3068   -3.9748    4.6200 C.ar      1 <0>        -0.1479
     20 C17        -1.0243   -2.6045    4.6828 C.ar      1 <0>         0.1725
     21 N4         -0.6435   -1.9433    3.5569 N.2       1 <0>        -0.5426
     22 N5         -1.9808   -6.0217    5.6931 N.pl3     1 <0>        -0.7363
     23 C18        -1.8584   -6.7349    4.4193 C.3       1 <0>         0.1270
     24 C19        -2.2197   -8.2076    4.6226 C.3       1 <0>         0.0456
     25 N6         -2.0970   -8.9227    3.3453 N.3       1 <0>        -0.5327
     26 C20        -3.1014   -8.4531    2.3799 C.3       1 <0>         0.0118
     27 C21        -2.8998   -9.1799    1.0477 C.3       1 <0>         0.0631
     28 O1         -2.9755  -10.5916    1.2642 O.3       1 <0>        -0.3848
     29 C22        -2.0110  -11.0832    2.1987 C.3       1 <0>         0.0631
     30 C23        -2.2035  -10.3757    3.5426 C.3       1 <0>         0.0183
     31 O2         -2.2044   -4.6470    8.0910 O.3       1 <0>        -0.3150
     32 C24        -2.3037   -3.8932    9.3010 C.3       1 <0>         0.0283
     33 Cl1        -2.4809   -0.0853    0.8147 Cl        1 <0>        -0.0594
     34 H1          2.5287   -2.0411    2.4770 H         1 <0>         0.0744
     35 H2          3.4340   -1.2401    1.1704 H         1 <0>         0.0715
     36 H3          2.4753   -0.2694    2.3136 H         1 <0>         0.0673
     37 H4          2.3490   -2.5141   -0.5904 H         1 <0>         0.1327
     38 H5          0.3920   -2.7117   -2.0687 H         1 <0>         0.1349
     39 H6         -1.7370   -1.6425   -1.4502 H         1 <0>         0.1359
     40 H7          0.2304    0.9328    2.4323 H         1 <0>         0.4222
     41 H8          0.0464    2.1989    4.5275 H         1 <0>         0.1835
     42 H9         -1.1503    0.1406    7.9941 H         1 <0>         0.2115
     43 H10        -1.6330   -2.1013    7.9877 H         1 <0>         0.1371
     44 H11        -1.2168   -4.5024    3.6820 H         1 <0>         0.1464
     45 H12        -2.2566   -6.4987    6.4915 H         1 <0>         0.4073
     46 H13        -2.5353   -6.2922    3.6886 H         1 <0>         0.0628
     47 H14        -0.8330   -6.6589    4.0575 H         1 <0>         0.0732
     48 H15        -1.5429   -8.6503    5.3534 H         1 <0>         0.0841
     49 H16        -3.2451   -8.2836    4.9845 H         1 <0>         0.0433
     50 H17        -4.1001   -8.6640    2.7621 H         1 <0>         0.0455
     51 H18        -2.9877   -7.3795    2.2297 H         1 <0>         0.0902
     52 H19        -3.6774   -8.8770    0.3465 H         1 <0>         0.0998
     53 H20        -1.9216   -8.9264    0.6391 H         1 <0>         0.0618
     54 H21        -2.1458  -12.1569    2.3300 H         1 <0>         0.1000
     55 H22        -1.0069  -10.8850    1.8236 H         1 <0>         0.0616
     56 H23        -1.4345  -10.7055    4.2411 H         1 <0>         0.0885
     57 H24        -3.1880  -10.6173    3.9434 H         1 <0>         0.0452
     58 H25        -1.3319   -3.4617    9.5411 H         1 <0>         0.0560
     59 H26        -3.0341   -3.0944    9.1725 H         1 <0>         0.0557
     60 H27        -2.6207   -4.5485   10.1123 H         1 <0>         0.1030
@<TRIPOS>BOND
     1    1    2 1
     2    1   34 1
     3    1   35 1
     4    1   36 1
     5    2    7 ar
     6    2    3 ar
     7    3    4 ar
     8    3   37 1
     9    4    5 ar
    10    4   38 1
    11    5    6 ar
    12    5   39 1
    13    6    7 ar
    14    6   33 1
    15    7    8 1
    16    8    9 1
    17    8   40 1
    18    9   21 2
    19    9   10 1
    20   10   14 1
    21   10   11 2
    22   11   12 1
    23   11   41 1
    24   12   13 2
    25   13   14 1
    26   13   42 1
    27   14   15 1
    28   15   20 ar
    29   15   16 ar
    30   16   17 ar
    31   16   43 1
    32   17   18 ar
    33   17   31 1
    34   18   19 ar
    35   18   22 1
    36   19   20 ar
    37   19   44 1
    38   20   21 1
    39   22   23 1
    40   22   45 1
    41   23   24 1
    42   23   46 1
    43   23   47 1
    44   24   25 1
    45   24   48 1
    46   24   49 1
    47   25   30 1
    48   25   26 1
    49   26   27 1
    50   26   50 1
    51   26   51 1
    52   27   28 1
    53   27   52 1
    54   27   53 1
    55   28   29 1
    56   29   30 1
    57   29   54 1
    58   29   55 1
    59   30   56 1
    60   30   57 1
    61   31   32 1
    62   32   58 1
    63   32   59 1
    64   32   60 1
@<TRIPOS>MOLECULE
CHEMBL322598__1
   61    65     0     0     0
SMALL
USER_CHARGES

@<TRIPOS>ATOM
      1 C1          2.5235   -1.2123    1.7689 C.3       1 <0>        -0.1136
      2 C2          1.3240   -1.3319    0.8645 C.ar      1 <0>        -0.0554
      3 C3          1.4163   -2.0438   -0.3159 C.ar      1 <0>        -0.1129
      4 C4          0.3166   -2.1548   -1.1464 C.ar      1 <0>        -0.0946
      5 C5         -0.8798   -1.5539   -0.7992 C.ar      1 <0>        -0.1146
      6 C6         -0.9793   -0.8399    0.3796 C.ar      1 <0>        -0.0194
      7 C7          0.1234   -0.7315    1.2195 C.ar      1 <0>         0.1513
      8 N1          0.0251   -0.0151    2.4162 N.pl3     1 <0>        -0.6457
      9 C8         -0.3649   -0.6581    3.5771 C.2       1 <0>         0.5112
     10 C9         -0.4741    0.0902    4.8272 C.2       1 <0>        -0.0859
     11 C10        -0.2686    1.4006    5.1832 C.2       1 <0>         0.0511
     12 N2         -0.5286    1.5071    6.4885 N.2       1 <0>        -0.4643
     13 C11        -0.8841    0.3402    6.9667 C.2       1 <0>         0.2012
     14 N3         -0.8658   -0.5693    5.9774 N.pl3     1 <0>        -0.3610
     15 C12        -1.1446   -1.9302    5.9082 C.ar      1 <0>         0.0474
     16 C13        -1.5409   -2.6213    7.0456 C.ar      1 <0>        -0.1537
     17 C14        -1.8173   -3.9739    6.9741 C.ar      1 <0>         0.0791
     18 C15        -1.6998   -4.6515    5.7582 C.ar      1 <0>         0.2061
     19 C16        -1.3068   -3.9748    4.6200 C.ar      1 <0>        -0.1430
     20 C17        -1.0243   -2.6045    4.6828 C.ar      1 <0>         0.1713
     21 N4         -0.6435   -1.9433    3.5569 N.2       1 <0>        -0.5540
     22 N5         -1.9808   -6.0217    5.6931 N.pl3     1 <0>        -0.7395
     23 C18        -1.8584   -6.7349    4.4193 C.3       1 <0>         0.1046
     24 C19        -2.2197   -8.2076    4.6226 C.3       1 <0>        -0.0203
     25 N6         -2.0970   -8.9227    3.3453 N.4       1 <0>        -0.3814
     26 C20        -3.0935   -8.4064    2.3969 C.3       1 <0>        -0.0513
     27 C21        -2.9634   -9.1529    1.0669 C.3       1 <0>         0.0368
     28 O1         -3.1320  -10.5549    1.2946 O.3       1 <0>        -0.3557
     29 C22        -2.1984  -11.1005    2.2309 C.3       1 <0>         0.0359
     30 C23        -2.3270  -10.3576    3.5630 C.3       1 <0>        -0.0426
     31 O2         -2.2044   -4.6470    8.0910 O.3       1 <0>        -0.3180
     32 C24        -2.3037   -3.8932    9.3010 C.3       1 <0>         0.0263
     33 Cl1        -2.4809   -0.0853    0.8147 Cl        1 <0>        -0.0562
     34 H1          2.5287   -2.0411    2.4770 H         1 <0>         0.0728
     35 H2          3.4340   -1.2401    1.1704 H         1 <0>         0.0739
     36 H3          2.4753   -0.2694    2.3136 H         1 <0>         0.0686
     37 H4          2.3490   -2.5141   -0.5904 H         1 <0>         0.1334
     38 H5          0.3920   -2.7117   -2.0687 H         1 <0>         0.1355
     39 H6         -1.7370   -1.6425   -1.4502 H         1 <0>         0.1369
     40 H7          0.2304    0.9328    2.4323 H         1 <0>         0.4251
     41 H8          0.0464    2.1989    4.5275 H         1 <0>         0.1870
     42 H9         -1.1503    0.1406    7.9941 H         1 <0>         0.2149
     43 H10        -1.6330   -2.1013    7.9877 H         1 <0>         0.1418
     44 H11        -1.2168   -4.5024    3.6820 H         1 <0>         0.1413
     45 H12        -2.2566   -6.4987    6.4915 H         1 <0>         0.4139
     46 H13        -2.5353   -6.2922    3.6886 H         1 <0>         0.0810
     47 H14        -0.8330   -6.6589    4.0575 H         1 <0>         0.0817
     48 H15        -1.5429   -8.6503    5.3534 H         1 <0>         0.1406
     49 H16        -3.2451   -8.2836    4.9845 H         1 <0>         0.1387
     50 H17        -4.0939   -8.5576    2.8024 H         1 <0>         0.1417
     51 H18        -2.9237   -7.3420    2.2346 H         1 <0>         0.1449
     52 H19        -3.7297   -8.8016    0.3759 H         1 <0>         0.1434
     53 H20        -1.9768   -8.9692    0.6414 H         1 <0>         0.0828
     54 H21        -2.4110  -12.1588    2.3822 H         1 <0>         0.1434
     55 H22        -1.1856  -10.9835    1.8452 H         1 <0>         0.0824
     56 H23        -1.5882  -10.7417    4.2664 H         1 <0>         0.1443
     57 H24        -3.3277  -10.5081    3.9681 H         1 <0>         0.1406
     58 H25        -3.0341   -3.0944    9.1725 H         1 <0>         0.0591
     59 H26        -2.6207   -4.5485   10.1123 H         1 <0>         0.1067
     60 H27        -1.3319   -3.4617    9.5411 H         1 <0>         0.0591
     61 H28        -1.1710   -8.7837    2.9695 H         1 <0>         0.4253
@<TRIPOS>BOND
     1    1    2 1
     2    1   34 1
     3    1   35 1
     4    1   36 1
     5    2    7 ar
     6    2    3 ar
     7    3    4 ar
     8    3   37 1
     9    4    5 ar
    10    4   38 1
    11    5    6 ar
    12    5   39 1
    13    6    7 ar
    14    6   33 1
    15    7    8 1
    16    8    9 1
    17    8   40 1
    18    9   21 2
    19    9   10 1
    20   10   14 1
    21   10   11 2
    22   11   12 1
    23   11   41 1
    24   12   13 2
    25   13   14 1
    26   13   42 1
    27   14   15 1
    28   15   20 ar
    29   15   16 ar
    30   16   17 ar
    31   16   43 1
    32   17   18 ar
    33   17   31 1
    34   18   19 ar
    35   18   22 1
    36   19   20 ar
    37   19   44 1
    38   20   21 1
    39   22   23 1
    40   22   45 1
    41   23   24 1
    42   23   46 1
    43   23   47 1
    44   24   25 1
    45   24   48 1
    46   24   49 1
    47   25   30 1
    48   25   26 1
    49   25   61 1
    50   26   27 1
    51   26   50 1
    52   26   51 1
    53   27   28 1
    54   27   52 1
    55   27   53 1
    56   28   29 1
    57   29   30 1
    58   29   54 1
    59   29   55 1
    60   30   56 1
    61   30   57 1
    62   31   32 1
    63   32   58 1
    64   32   59 1
    65   32   60 1
@<TRIPOS>MOLECULE
CHEMBL106457
   59    63     0     0     0
SMALL
USER_CHARGES

@<TRIPOS>ATOM
      1 C1          3.0680    0.0099    3.0502 C.3       1 <0>        -0.1122
      2 C2          1.9339   -0.4853    2.1903 C.ar      1 <0>        -0.0718
      3 C3          2.1949   -1.0276    0.9467 C.ar      1 <0>        -0.1106
      4 C4          1.1555   -1.4828    0.1568 C.ar      1 <0>        -0.0993
      5 C5         -0.1491   -1.3972    0.6081 C.ar      1 <0>        -0.1125
      6 C6         -0.4176   -0.8556    1.8505 C.ar      1 <0>        -0.0110
      7 C7          0.6262   -0.4023    2.6494 C.ar      1 <0>         0.1529
      8 N1          0.3591    0.1407    3.9099 N.pl3     1 <0>        -0.6461
      9 C8         -0.1214   -0.6682    4.9237 C.2       1 <0>         0.4946
     10 C9         -0.2930   -0.1296    6.2710 C.2       1 <0>        -0.0771
     11 C10        -0.0789    1.0976    6.8492 C.2       1 <0>         0.0407
     12 N2         -0.4203    0.9995    8.1362 N.2       1 <0>        -0.4671
     13 C11        -0.8345   -0.2164    8.3941 C.2       1 <0>         0.1950
     14 N3         -0.7745   -0.9531    7.2716 N.pl3     1 <0>        -0.3567
     15 C12        -1.0818   -2.2739    6.9631 C.ar      1 <0>         0.0515
     16 C13        -1.5678   -3.1266    7.9450 C.ar      1 <0>        -0.1684
     17 C14        -1.8722   -4.4394    7.6344 C.ar      1 <0>         0.1155
     18 C15        -1.6926   -4.9129    6.3342 C.ar      1 <0>         0.1356
     19 C16        -1.2104   -4.0754    5.3495 C.ar      1 <0>        -0.1553
     20 C17        -0.8993   -2.7439    5.6529 C.ar      1 <0>         0.1613
     21 N4         -0.4300   -1.9224    4.6759 N.2       1 <0>        -0.5367
     22 O1         -1.9938   -6.2054    6.0364 O.3       1 <0>        -0.2788
     23 C18        -1.7867   -6.6253    4.6863 C.3       1 <0>         0.0618
     24 C19        -2.1778   -8.0977    4.5445 C.3       1 <0>         0.0560
     25 N5         -3.6208   -8.2455    4.7766 N.3       1 <0>        -0.5298
     26 C20        -3.9616   -9.6374    5.1049 C.3       1 <0>         0.0193
     27 C21        -5.4614   -9.7346    5.3969 C.3       1 <0>         0.0629
     28 O2         -6.1940   -9.2495    4.2685 O.3       1 <0>        -0.3854
     29 C22        -5.8871   -7.8965    3.9212 C.3       1 <0>         0.0638
     30 C23        -4.3917   -7.7807    3.6143 C.3       1 <0>         0.0141
     31 O3         -2.3477   -5.2717    8.5994 O.3       1 <0>        -0.2946
     32 C24        -2.5070   -4.7224    9.9090 C.3       1 <0>         0.0228
     33 Cl1        -2.0554   -0.7473    2.4161 Cl        1 <0>        -0.0546
     34 H1          3.4299   -0.8040    3.6784 H         1 <0>         0.0741
     35 H2          3.8783    0.3655    2.4137 H         1 <0>         0.0733
     36 H3          2.7162    0.8265    3.6806 H         1 <0>         0.0668
     37 H4          3.2124   -1.0957    0.5909 H         1 <0>         0.1330
     38 H5          1.3628   -1.9059   -0.8150 H         1 <0>         0.1345
     39 H6         -0.9588   -1.7538   -0.0114 H         1 <0>         0.1354
     40 H7          0.5109    1.0847    4.0733 H         1 <0>         0.4228
     41 H8          0.2972    1.9803    6.3535 H         1 <0>         0.1847
     42 H9         -1.1707   -0.5710    9.3572 H         1 <0>         0.2137
     43 H10        -1.7079   -2.7644    8.9527 H         1 <0>         0.1438
     44 H11        -1.0725   -4.4467    4.3447 H         1 <0>         0.1515
     45 H12        -2.4008   -6.0203    4.0193 H         1 <0>         0.0656
     46 H13        -0.7358   -6.5017    4.4245 H         1 <0>         0.0703
     47 H14        -1.9341   -8.4432    3.5398 H         1 <0>         0.0628
     48 H15        -1.6294   -8.6914    5.2758 H         1 <0>         0.0895
     49 H16        -3.7125  -10.2818    4.2618 H         1 <0>         0.0433
     50 H17        -3.3987   -9.9524    5.9835 H         1 <0>         0.0888
     51 H18        -5.7290  -10.7743    5.5849 H         1 <0>         0.0990
     52 H19        -5.7014   -9.1321    6.2730 H         1 <0>         0.0616
     53 H20        -6.4626   -7.6070    3.0419 H         1 <0>         0.0983
     54 H21        -6.1395   -7.2406    4.7544 H         1 <0>         0.0608
     55 H22        -4.1426   -6.7405    3.4047 H         1 <0>         0.0851
     56 H23        -4.1494   -8.3954    2.7473 H         1 <0>         0.0446
     57 H24        -1.5427   -4.3702   10.2751 H         1 <0>         0.0559
     58 H25        -3.2077   -3.8883    9.8703 H         1 <0>         0.0560
     59 H26        -2.8923   -5.4898   10.5804 H         1 <0>         0.1053
@<TRIPOS>BOND
     1    1    2 1
     2    1   34 1
     3    1   35 1
     4    1   36 1
     5    2    7 ar
     6    2    3 ar
     7    3    4 ar
     8    3   37 1
     9    4    5 ar
    10    4   38 1
    11    5    6 ar
    12    5   39 1
    13    6    7 ar
    14    6   33 1
    15    7    8 1
    16    8    9 1
    17    8   40 1
    18    9   21 2
    19    9   10 1
    20   10   14 1
    21   10   11 2
    22   11   12 1
    23   11   41 1
    24   12   13 2
    25   13   14 1
    26   13   42 1
    27   14   15 1
    28   15   20 ar
    29   15   16 ar
    30   16   17 ar
    31   16   43 1
    32   17   18 ar
    33   17   31 1
    34   18   19 ar
    35   18   22 1
    36   19   20 ar
    37   19   44 1
    38   20   21 1
    39   22   23 1
    40   23   24 1
    41   23   45 1
    42   23   46 1
    43   24   25 1
    44   24   47 1
    45   24   48 1
    46   25   30 1
    47   25   26 1
    48   26   27 1
    49   26   49 1
    50   26   50 1
    51   27   28 1
    52   27   51 1
    53   27   52 1
    54   28   29 1
    55   29   30 1
    56   29   53 1
    57   29   54 1
    58   30   55 1
    59   30   56 1
    60   31   32 1
    61   32   57 1
    62   32   58 1
    63   32   59 1
@<TRIPOS>MOLECULE
CHEMBL106457__1
   60    64     0     0     0
SMALL
USER_CHARGES

@<TRIPOS>ATOM
      1 C1          2.9790   -0.0514    2.5104 C.3       1 <0>        -0.1150
      2 C2          1.8513   -0.6158    1.6852 C.ar      1 <0>        -0.0677
      3 C3          2.1196   -1.2376    0.4811 C.ar      1 <0>        -0.1085
      4 C4          1.0861   -1.7563   -0.2767 C.ar      1 <0>        -0.0964
      5 C5         -0.2199   -1.6549    0.1672 C.ar      1 <0>        -0.1137
      6 C6         -0.4957   -1.0338    1.3703 C.ar      1 <0>        -0.0107
      7 C7          0.5422   -0.5164    2.1372 C.ar      1 <0>         0.1469
      8 N1          0.2678    0.1073    3.3582 N.pl3     1 <0>        -0.6397
      9 C8         -0.2066   -0.6365    4.4235 C.2       1 <0>         0.5110
     10 C9         -0.3881   -0.0098    5.7308 C.2       1 <0>        -0.0847
     11 C10        -0.1896    1.2561    6.2249 C.2       1 <0>         0.0554
     12 N2         -0.5336    1.2416    7.5149 N.2       1 <0>        -0.4618
     13 C11        -0.9349    0.0413    7.8537 C.2       1 <0>         0.2064
     14 N3         -0.8633   -0.7691    6.7839 N.pl3     1 <0>        -0.3668
     15 C12        -1.1547   -2.1112    6.5650 C.ar      1 <0>         0.0687
     16 C13        -1.6339   -2.9009    7.6014 C.ar      1 <0>        -0.1616
     17 C14        -1.9226   -4.2351    7.3799 C.ar      1 <0>         0.1147
     18 C15        -1.7339   -4.7935    6.1151 C.ar      1 <0>         0.1134
     19 C16        -1.2582   -4.0193    5.0770 C.ar      1 <0>        -0.1461
     20 C17        -0.9631   -2.6668    5.2901 C.ar      1 <0>         0.1657
     21 N4         -0.5002   -1.9081    4.2606 N.2       1 <0>        -0.5488
     22 O1         -2.0196   -6.1066    5.9051 O.3       1 <0>        -0.3122
     23 C18        -1.8037   -6.6147    4.5870 C.3       1 <0>         0.0212
     24 C19        -2.1778   -8.0977    4.5445 C.3       1 <0>         0.0012
     25 N5         -3.6208   -8.2455    4.7766 N.4       1 <0>        -0.3876
     26 C20        -3.9543   -9.6716    4.8955 C.3       1 <0>        -0.0432
     27 C21        -5.4581   -9.8230    5.1375 C.3       1 <0>         0.0353
     28 O2         -6.1731   -9.2041    4.0644 O.3       1 <0>        -0.3560
     29 C22        -5.8638   -7.8182    3.8929 C.3       1 <0>         0.0372
     30 C23        -4.3607   -7.6630    3.6486 C.3       1 <0>        -0.0504
     31 O3         -2.3914   -5.0055    8.3981 O.3       1 <0>        -0.3049
     32 C24        -2.5608   -4.3706    9.6670 C.3       1 <0>         0.0209
     33 Cl1        -2.1352   -0.9056    1.9266 Cl        1 <0>        -0.0578
     34 H1          3.3490   -0.8172    3.1920 H         1 <0>         0.0749
     35 H2          3.7860    0.2694    1.8516 H         1 <0>         0.0767
     36 H3          2.6175    0.8019    3.0842 H         1 <0>         0.0675
     37 H4          3.1381   -1.3184    0.1311 H         1 <0>         0.1357
     38 H5          1.2990   -2.2416   -1.2178 H         1 <0>         0.1364
     39 H6         -1.0249   -2.0611   -0.4272 H         1 <0>         0.1357
     40 H7          0.4101    1.0616    3.4581 H         1 <0>         0.4259
     41 H8          0.1780    2.1075    5.6713 H         1 <0>         0.1891
     42 H9         -1.2698   -0.2511    8.8379 H         1 <0>         0.2170
     43 H10        -1.7810   -2.4729    8.5819 H         1 <0>         0.1489
     44 H11        -1.1132   -4.4562    4.1000 H         1 <0>         0.1521
     45 H12        -2.4227   -6.0634    3.8792 H         1 <0>         0.0882
     46 H13        -0.7536   -6.4971    4.3197 H         1 <0>         0.1137
     47 H14        -1.9229   -8.5088    3.5677 H         1 <0>         0.1516
     48 H15        -1.6285   -8.6333    5.3187 H         1 <0>         0.1458
     49 H16        -3.6804  -10.1871    3.9750 H         1 <0>         0.1401
     50 H17        -3.4060  -10.1047    5.7321 H         1 <0>         0.1442
     51 H18        -5.7147  -10.8814    5.1832 H         1 <0>         0.1430
     52 H19        -5.7257   -9.3420    6.0784 H         1 <0>         0.0819
     53 H20        -6.4140   -7.4255    3.0378 H         1 <0>         0.1424
     54 H21        -6.1452   -7.2685    4.7911 H         1 <0>         0.0816
     55 H22        -4.1141   -6.6050    3.5595 H         1 <0>         0.1402
     56 H23        -4.0867   -8.1793    2.7285 H         1 <0>         0.1418
     57 H24        -1.6016   -3.9833   10.0105 H         1 <0>         0.0609
     58 H25        -3.2707   -3.5491    9.5704 H         1 <0>         0.0599
     59 H26        -2.9394   -5.0950   10.3881 H         1 <0>         0.1089
     60 H27        -3.8752   -7.7682    5.6283 H         1 <0>         0.4312
@<TRIPOS>BOND
     1    1    2 1
     2    1   34 1
     3    1   35 1
     4    1   36 1
     5    2    7 ar
     6    2    3 ar
     7    3    4 ar
     8    3   37 1
     9    4    5 ar
    10    4   38 1
    11    5    6 ar
    12    5   39 1
    13    6    7 ar
    14    6   33 1
    15    7    8 1
    16    8    9 1
    17    8   40 1
    18    9   21 2
    19    9   10 1
    20   10   14 1
    21   10   11 2
    22   11   12 1
    23   11   41 1
    24   12   13 2
    25   13   14 1
    26   13   42 1
    27   14   15 1
    28   15   20 ar
    29   15   16 ar
    30   16   17 ar
    31   16   43 1
    32   17   18 ar
    33   17   31 1
    34   18   19 ar
    35   18   22 1
    36   19   20 ar
    37   19   44 1
    38   20   21 1
    39   22   23 1
    40   23   24 1
    41   23   45 1
    42   23   46 1
    43   24   25 1
    44   24   47 1
    45   24   48 1
    46   25   30 1
    47   25   26 1
    48   25   60 1
    49   26   27 1
    50   26   49 1
    51   26   50 1
    52   27   28 1
    53   27   51 1
    54   27   52 1
    55   28   29 1
    56   29   30 1
    57   29   53 1
    58   29   54 1
    59   30   55 1
    60   30   56 1
    61   31   32 1
    62   32   57 1
    63   32   58 1
    64   32   59 1
@<TRIPOS>MOLECULE
CHEMBL408030
   79    85     0     0     0
SMALL
USER_CHARGES

@<TRIPOS>ATOM
      1 C1          0.4333    1.8452   -0.0965 C.3       1 <0>        -0.1158
      2 C2          0.2320    0.3529   -0.1550 C.ar      1 <0>        -0.0493
      3 C3          0.2375   -0.2982   -1.3730 C.ar      1 <0>        -0.1188
      4 C4          0.0529   -1.6676   -1.4275 C.ar      1 <0>        -0.0886
      5 C5         -0.1373   -2.3895   -0.2635 C.ar      1 <0>        -0.1188
      6 C6         -0.1433   -1.7443    0.9577 C.ar      1 <0>        -0.0494
      7 C7          0.0466   -0.3699    1.0162 C.ar      1 <0>         0.1133
      8 N1          0.0458    0.2865    2.2531 N.am      1 <0>        -0.4631
      9 C8          1.2076    0.4418    2.9202 C.2       1 <0>         0.5875
     10 O1          2.2503    0.0187    2.4578 O.2       1 <0>        -0.4748
     11 C9          1.1882    1.1324    4.2154 C.ar      1 <0>        -0.3304
     12 C10         2.3448    1.3346    4.9681 C.ar      1 <0>         0.2967
     13 N2          2.2400    1.9668    6.1250 N.ar      1 <0>        -0.5666
     14 C11         1.0651    2.4015    6.5657 C.ar      1 <0>         0.6145
     15 N3         -0.0588    2.2302    5.8818 N.ar      1 <0>        -0.5803
     16 C12        -0.0417    1.6071    4.7138 C.ar      1 <0>         0.4897
     17 N4         -1.1919    1.4111    3.9728 N.pl3     1 <0>        -0.4382
     18 C13        -1.1461    0.7683    2.7649 C.2       1 <0>         0.5196
     19 N5         -2.3580    0.7127    2.2560 N.2       1 <0>        -0.4655
     20 C14        -3.2404    1.3131    3.0937 C.ar      1 <0>         0.0832
     21 C15        -2.5131    1.7623    4.2079 C.ar      1 <0>         0.0494
     22 C16        -3.1631    2.4209    5.2399 C.ar      1 <0>        -0.0818
     23 C17        -4.5271    2.6207    5.1755 C.ar      1 <0>        -0.1045
     24 C18        -5.2528    2.1663    4.0847 C.ar      1 <0>        -0.1046
     25 C19        -4.6200    1.5290    3.0406 C.ar      1 <0>        -0.0683
     26 N6          1.0111    3.0551    7.7804 N.pl3     1 <0>        -0.6204
     27 C20         2.1938    3.3532    8.4682 C.ar      1 <0>         0.1284
     28 C21         3.3478    3.6670    7.7623 C.ar      1 <0>        -0.0665
     29 C22         4.5137    3.9608    8.4414 C.ar      1 <0>        -0.1229
     30 C23         4.5326    3.9420    9.8283 C.ar      1 <0>         0.1102
     31 C24         3.3803    3.6287   10.5342 C.ar      1 <0>        -0.1853
     32 C25         2.2119    3.3407    9.8567 C.ar      1 <0>        -0.1003
     33 O2          5.6814    4.2306   10.4963 O.3       1 <0>        -0.3122
     34 C26         5.6288    4.1925   11.9238 C.3       1 <0>         0.0628
     35 C27         7.0048    4.5420   12.4943 C.3       1 <0>        -0.1511
     36 C28         6.9485    4.5012   14.0227 C.3       1 <0>        -0.0060
     37 N7          8.2696    4.8368   14.5705 N.4       1 <0>        -0.3815
     38 C29         9.2360    3.8028   14.1814 C.3       1 <0>        -0.0138
     39 C30        10.6302    4.1885   14.6805 C.3       1 <0>        -0.1460
     40 C31        10.6030    4.3158   16.2064 C.3       1 <0>        -0.1400
     41 C32         9.5393    5.3431   16.6042 C.3       1 <0>        -0.1465
     42 C33         8.1856    4.9146   16.0338 C.3       1 <0>        -0.0065
     43 C34        -0.3505   -2.5318    2.2258 C.3       1 <0>        -0.1157
     44 H1          1.4972    2.0652   -0.0080 H         1 <0>         0.0757
     45 H2          0.0427    2.3005   -1.0066 H         1 <0>         0.0777
     46 H3         -0.0944    2.2494    0.7673 H         1 <0>         0.0554
     47 H4          0.3857    0.2628   -2.2839 H         1 <0>         0.1328
     48 H5          0.0568   -2.1743   -2.3813 H         1 <0>         0.1323
     49 H6         -0.2815   -3.4588   -0.3093 H         1 <0>         0.1327
     50 H7          3.3029    0.9830    4.6149 H         1 <0>         0.2005
     51 H8         -2.6036    2.7765    6.0925 H         1 <0>         0.1349
     52 H9         -5.0327    3.1339    5.9801 H         1 <0>         0.1375
     53 H10        -6.3199    2.3280    4.0461 H         1 <0>         0.1390
     54 H11        -5.1909    1.1804    2.1927 H         1 <0>         0.1401
     55 H12         0.1539    3.3080    8.1574 H         1 <0>         0.4293
     56 H13         3.3334    3.6810    6.6825 H         1 <0>         0.1458
     57 H14         5.4113    4.2049    7.8926 H         1 <0>         0.1381
     58 H15         3.3959    3.6139   11.6140 H         1 <0>         0.1306
     59 H16         1.3136    3.1015   10.4065 H         1 <0>         0.1329
     60 H17         4.8939    4.9145   12.2797 H         1 <0>         0.0725
     61 H18         5.3434    3.1925   12.2503 H         1 <0>         0.0722
     62 H19         7.7397    3.8200   12.1384 H         1 <0>         0.0994
     63 H20         7.2902    5.5420   12.1678 H         1 <0>         0.0994
     64 H21         6.2136    5.2232   14.3786 H         1 <0>         0.1349
     65 H22         6.6632    3.5012   14.3493 H         1 <0>         0.1332
     66 H23         8.9440    2.8492   14.6213 H         1 <0>         0.1293
     67 H24         9.2519    3.7112   13.0953 H         1 <0>         0.1324
     68 H25        11.3459    3.4187   14.3921 H         1 <0>         0.1126
     69 H26        10.9233    5.1419   14.2409 H         1 <0>         0.0880
     70 H27        10.3599    3.3495   16.6484 H         1 <0>         0.0819
     71 H28        11.5791    4.6454   16.5621 H         1 <0>         0.0946
     72 H29         9.4753    5.3985   17.6909 H         1 <0>         0.1128
     73 H30         9.8097    6.3205   16.2046 H         1 <0>         0.0880
     74 H31         7.4259    5.6438   16.3154 H         1 <0>         0.1307
     75 H32         7.9160    3.9373   16.4343 H         1 <0>         0.1289
     76 H33         0.6145   -2.8616    2.6105 H         1 <0>         0.0754
     77 H34        -0.8418   -1.9026    2.9680 H         1 <0>         0.0554
     78 H35        -0.9743   -3.4007    2.0160 H         1 <0>         0.0776
     79 H36         8.5681    5.7282   14.2039 H         1 <0>         0.4237
@<TRIPOS>BOND
     1    1    2 1
     2    1   44 1
     3    1   45 1
     4    1   46 1
     5    2    7 ar
     6    2    3 ar
     7    3    4 ar
     8    3   47 1
     9    4    5 ar
    10    4   48 1
    11    5    6 ar
    12    5   49 1
    13    6    7 ar
    14    6   43 1
    15    7    8 1
    16    8   18 1
    17    8    9 am
    18    9   10 2
    19    9   11 1
    20   11   16 ar
    21   11   12 ar
    22   12   13 ar
    23   12   50 1
    24   13   14 ar
    25   14   15 ar
    26   14   26 1
    27   15   16 ar
    28   16   17 1
    29   17   21 1
    30   17   18 1
    31   18   19 2
    32   19   20 1
    33   20   25 ar
    34   20   21 ar
    35   21   22 ar
    36   22   23 ar
    37   22   51 1
    38   23   24 ar
    39   23   52 1
    40   24   25 ar
    41   24   53 1
    42   25   54 1
    43   26   27 1
    44   26   55 1
    45   27   32 ar
    46   27   28 ar
    47   28   29 ar
    48   28   56 1
    49   29   30 ar
    50   29   57 1
    51   30   31 ar
    52   30   33 1
    53   31   32 ar
    54   31   58 1
    55   32   59 1
    56   33   34 1
    57   34   35 1
    58   34   60 1
    59   34   61 1
    60   35   36 1
    61   35   62 1
    62   35   63 1
    63   36   37 1
    64   36   64 1
    65   36   65 1
    66   37   42 1
    67   37   38 1
    68   37   79 1
    69   38   39 1
    70   38   66 1
    71   38   67 1
    72   39   40 1
    73   39   68 1
    74   39   69 1
    75   40   41 1
    76   40   70 1
    77   40   71 1
    78   41   42 1
    79   41   72 1
    80   41   73 1
    81   42   74 1
    82   42   75 1
    83   43   76 1
    84   43   77 1
    85   43   78 1
@<TRIPOS>MOLECULE
CHEMBL496494
   53    56     0     0     0
SMALL
USER_CHARGES

@<TRIPOS>ATOM
      1 C1         -0.0523    1.5020    0.0223 C.3       1 <0>        -0.1270
      2 C2         -0.0143   -0.0044    0.0081 C.2       1 <0>         0.0340
      3 C3         -0.6900   -0.7219   -0.9848 C.2       1 <0>        -0.2231
      4 C4         -0.6505   -2.0757   -0.9901 C.2       1 <0>         0.1426
      5 N1          0.0398   -2.7615   -0.0409 N.am      1 <0>        -0.4554
      6 C5          0.7059   -2.1145    0.9342 C.2       1 <0>         0.5254
      7 O1          1.3205   -2.7461    1.7776 O.2       1 <0>        -0.5262
      8 C6          0.6958   -0.6991    0.9755 C.2       1 <0>        -0.1846
      9 C7          1.4281    0.0278    2.0382 C.ar      1 <0>        -0.0422
     10 C8          2.5135    0.8522    1.6978 C.ar      1 <0>        -0.0487
     11 C9          3.2026    1.5303    2.6530 C.ar      1 <0>        -0.1229
     12 C10         2.8312    1.4117    4.0018 C.ar      1 <0>         0.2143
     13 C11         1.7357    0.5818    4.3569 C.ar      1 <0>        -0.2113
     14 C12         1.0338   -0.1060    3.3590 C.ar      1 <0>        -0.0261
     15 C13         1.3850    0.4818    5.7169 C.ar      1 <0>         0.2449
     16 N2          2.0880    1.1618    6.5982 N.ar      1 <0>        -0.5643
     17 C14         3.1103    1.9313    6.2296 C.ar      1 <0>         0.5692
     18 N3          3.4843    2.0634    4.9718 N.ar      1 <0>        -0.5738
     19 N4          3.8084    2.6199    7.2054 N.pl3     1 <0>        -0.8196
     20 C15         0.0582   -4.1610   -0.0775 C.ar      1 <0>         0.0929
     21 C16         1.0513   -4.8257   -0.7851 C.ar      1 <0>        -0.0925
     22 C17         1.0669   -6.2063   -0.8188 C.ar      1 <0>        -0.1063
     23 C18         0.0951   -6.9268   -0.1489 C.ar      1 <0>        -0.0519
     24 C19        -0.8951   -6.2680    0.5566 C.ar      1 <0>        -0.1121
     25 C20        -0.9132   -4.8876    0.5986 C.ar      1 <0>        -0.0925
     26 C21         0.1149   -8.4331   -0.1882 C.3       1 <0>        -0.0326
     27 C22         1.4295   -8.9416    0.4069 C.3       1 <0>        -0.1410
     28 C23        -1.0590   -8.9800    0.6265 C.3       1 <0>        -0.1471
     29 C24        -0.0057   -8.9071   -1.6380 C.3       1 <0>        -0.1397
     30 H1          0.7758    1.8920   -0.5695 H         1 <0>         0.0848
     31 H2         -0.9957    1.8456   -0.4020 H         1 <0>         0.0767
     32 H3          0.0354    1.8580    1.0488 H         1 <0>         0.0768
     33 H4         -1.2442   -0.1956   -1.7478 H         1 <0>         0.1512
     34 H5         -1.1765   -2.6194   -1.7609 H         1 <0>         0.1630
     35 H6          2.8048    0.9482    0.6622 H         1 <0>         0.1304
     36 H7          4.0352    2.1594    2.3749 H         1 <0>         0.1385
     37 H8          0.1962   -0.7369    3.6172 H         1 <0>         0.1309
     38 H9          0.5580   -0.1382    6.0299 H         1 <0>         0.1777
     39 H10         3.5499    2.5367    8.1366 H         1 <0>         0.4145
     40 H11         4.5564    3.1859    6.9585 H         1 <0>         0.4154
     41 H12         1.8103   -4.2635   -1.3088 H         1 <0>         0.1267
     42 H13         1.8387   -6.7237   -1.3692 H         1 <0>         0.1309
     43 H14        -1.6529   -6.8335    1.0785 H         1 <0>         0.1364
     44 H15        -1.6842   -4.3737    1.1534 H         1 <0>         0.1268
     45 H16         1.5154   -8.6039    1.4397 H         1 <0>         0.0583
     46 H17         1.4438  -10.0311    0.3785 H         1 <0>         0.0617
     47 H18         2.2658   -8.5520   -0.1735 H         1 <0>         0.0580
     48 H19        -1.9955   -8.6178    0.2025 H         1 <0>         0.0599
     49 H20        -1.0447  -10.0696    0.5980 H         1 <0>         0.0615
     50 H21        -0.9731   -8.6424    1.6593 H         1 <0>         0.0602
     51 H22         0.8306   -8.5174   -2.2184 H         1 <0>         0.0579
     52 H23         0.0087   -9.9966   -1.6664 H         1 <0>         0.0616
     53 H24        -0.9422   -8.5448   -2.0619 H         1 <0>         0.0575
@<TRIPOS>BOND
     1    1    2 1
     2    1   30 1
     3    1   31 1
     4    1   32 1
     5    2    8 2
     6    2    3 1
     7    3    4 2
     8    3   33 1
     9    4    5 1
    10    4   34 1
    11    5    6 am
    12    5   20 1
    13    6    7 2
    14    6    8 1
    15    8    9 1
    16    9   14 ar
    17    9   10 ar
    18   10   11 ar
    19   10   35 1
    20   11   12 ar
    21   11   36 1
    22   12   18 ar
    23   12   13 ar
    24   13   14 ar
    25   13   15 ar
    26   14   37 1
    27   15   16 ar
    28   15   38 1
    29   16   17 ar
    30   17   18 ar
    31   17   19 1
    32   19   39 1
    33   19   40 1
    34   20   25 ar
    35   20   21 ar
    36   21   22 ar
    37   21   41 1
    38   22   23 ar
    39   22   42 1
    40   23   24 ar
    41   23   26 1
    42   24   25 ar
    43   24   43 1
    44   25   44 1
    45   26   27 1
    46   26   28 1
    47   26   29 1
    48   27   45 1
    49   27   46 1
    50   27   47 1
    51   28   48 1
    52   28   49 1
    53   28   50 1
    54   29   51 1
    55   29   52 1
    56   29   53 1
@<TRIPOS>MOLECULE
CHEMBL426805
   47    51     0     0     0
SMALL
USER_CHARGES

@<TRIPOS>ATOM
      1 C1          2.6816   -0.2234    1.4097 C.3       1 <0>        -0.1120
      2 C2          1.5131   -0.8781    0.7191 C.ar      1 <0>        -0.0725
      3 C3          1.7137   -1.6096   -0.4355 C.ar      1 <0>        -0.1105
      4 C4          0.6427   -2.2113   -1.0699 C.ar      1 <0>        -0.0999
      5 C5         -0.6332   -2.0833   -0.5516 C.ar      1 <0>        -0.1122
      6 C6         -0.8413   -1.3531    0.6028 C.ar      1 <0>        -0.0116
      7 C7          0.2347   -0.7514    1.2458 C.ar      1 <0>         0.1548
      8 N1          0.0290   -0.0161    2.4172 N.pl3     1 <0>        -0.6475
      9 C8         -0.3611   -0.6594    3.5783 C.2       1 <0>         0.4809
     10 C9         -0.4667    0.0865    4.8304 C.2       1 <0>        -0.0670
     11 C10        -0.2566    1.3953    5.1878 C.2       1 <0>         0.0424
     12 N2         -0.5141    1.5014    6.4940 N.2       1 <0>        -0.4696
     13 C11        -0.8723    0.3360    6.9721 C.2       1 <0>         0.2226
     14 N3         -0.8587   -0.5735    5.9808 N.pl3     1 <0>        -0.3642
     15 C12        -1.1424   -1.9295    5.9130 C.ar      1 <0>         0.3112
     16 C13        -1.0265   -2.6003    4.6855 C.ar      1 <0>         0.0540
     17 N4         -0.6439   -1.9440    3.5587 N.2       1 <0>        -0.5227
     18 C14        -1.3166   -3.9723    4.6313 C.ar      1 <0>         0.0005
     19 C15        -1.7056   -4.6082    5.7921 C.ar      1 <0>        -0.2146
     20 C16        -1.7985   -3.8771    6.9746 C.ar      1 <0>         0.4288
     21 N5         -1.5204   -2.5844    7.0012 N.ar      1 <0>        -0.5442
     22 N6         -2.1909   -4.5168    8.1454 N.pl3     1 <0>        -0.6085
     23 C17        -2.5217   -3.7468    9.3550 C.3       1 <0>         0.0916
     24 C18        -3.8825   -4.2241    9.8749 C.3       1 <0>         0.0459
     25 O1         -3.8606   -5.6467   10.0141 O.3       1 <0>        -0.3776
     26 C19        -3.6604   -6.3519    8.7868 C.3       1 <0>         0.0460
     27 C20        -2.2936   -5.9834    8.2095 C.3       1 <0>         0.0874
     28 Cl1        -2.4429   -1.1927    1.2531 Cl        1 <0>        -0.0556
     29 H1          3.1094   -0.9155    2.1350 H         1 <0>         0.0739
     30 H2          3.4379    0.0422    0.6711 H         1 <0>         0.0729
     31 H3          2.3428    0.6768    1.9225 H         1 <0>         0.0669
     32 H4          2.7085   -1.7114   -0.8434 H         1 <0>         0.1327
     33 H5          0.8027   -2.7822   -1.9726 H         1 <0>         0.1343
     34 H6         -1.4677   -2.5542   -1.0498 H         1 <0>         0.1353
     35 H7          0.1599    0.9450    2.4157 H         1 <0>         0.4224
     36 H8          0.0596    2.1933    4.5324 H         1 <0>         0.1871
     37 H9         -1.1365    0.1363    8.0001 H         1 <0>         0.2170
     38 H10        -1.2376   -4.5176    3.7025 H         1 <0>         0.1541
     39 H11        -1.9363   -5.6633    5.7843 H         1 <0>         0.1472
     40 H12        -1.7591   -3.9130   10.1159 H         1 <0>         0.0729
     41 H13        -2.5732   -2.6855    9.1119 H         1 <0>         0.1008
     42 H14        -4.0830   -3.7665   10.8436 H         1 <0>         0.1080
     43 H15        -4.6623   -3.9394    9.1685 H         1 <0>         0.0554
     44 H16        -3.7010   -7.4252    8.9727 H         1 <0>         0.1099
     45 H17        -4.4394   -6.0750    8.0765 H         1 <0>         0.0573
     46 H18        -2.1941   -6.4024    7.2082 H         1 <0>         0.0967
     47 H19        -1.5077   -6.3786    8.8531 H         1 <0>         0.0795
@<TRIPOS>BOND
     1    1    2 1
     2    1   29 1
     3    1   30 1
     4    1   31 1
     5    2    7 ar
     6    2    3 ar
     7    3    4 ar
     8    3   32 1
     9    4    5 ar
    10    4   33 1
    11    5    6 ar
    12    5   34 1
    13    6    7 ar
    14    6   28 1
    15    7    8 1
    16    8    9 1
    17    8   35 1
    18    9   17 2
    19    9   10 1
    20   10   14 1
    21   10   11 2
    22   11   12 1
    23   11   36 1
    24   12   13 2
    25   13   14 1
    26   13   37 1
    27   14   15 1
    28   15   21 ar
    29   15   16 ar
    30   16   17 1
    31   16   18 ar
    32   18   19 ar
    33   18   38 1
    34   19   20 ar
    35   19   39 1
    36   20   21 ar
    37   20   22 1
    38   22   27 1
    39   22   23 1
    40   23   24 1
    41   23   40 1
    42   23   41 1
    43   24   25 1
    44   24   42 1
    45   24   43 1
    46   25   26 1
    47   26   27 1
    48   26   44 1
    49   26   45 1
    50   27   46 1
    51   27   47 1
@<TRIPOS>MOLECULE
CHEMBL411632
   46    48     0     0     0
SMALL
USER_CHARGES

@<TRIPOS>ATOM
      1 C1         -0.1914    1.6199   -0.1858 C.3       1 <0>        -0.1304
      2 C2         -0.0896    0.1182   -0.1109 C.ar      1 <0>        -0.0251
      3 C3         -0.1993   -0.6391   -1.2597 C.ar      1 <0>        -0.1090
      4 C4         -0.1067   -2.0166   -1.1964 C.ar      1 <0>        -0.1049
      5 C5          0.0975   -2.6489    0.0246 C.ar      1 <0>         0.1292
      6 C6          0.2091   -1.8975    1.1841 C.ar      1 <0>        -0.0797
      7 C7          0.1214   -0.5067    1.1194 C.ar      1 <0>        -0.1246
      8 C8          0.2453    0.3023    2.3505 C.2       1 <0>         0.5643
      9 O1          0.0914    1.5074    2.3040 O.2       1 <0>        -0.5121
     10 N1          0.5288   -0.2960    3.5243 N.am      1 <0>        -0.6516
     11 C9          0.7571    0.4796    4.6691 C.ar      1 <0>        -0.0208
     12 C10         1.2344    1.7827    4.5633 C.ar      1 <0>         0.1947
     13 N2          1.4380    2.4849    5.6655 N.ar      1 <0>        -0.5506
     14 C11         1.1934    1.9624    6.8577 C.ar      1 <0>         0.5491
     15 N3          0.7388    0.7262    6.9965 N.ar      1 <0>        -0.5512
     16 C12         0.5063   -0.0329    5.9386 C.ar      1 <0>         0.1741
     17 N4          1.4197    2.7294    7.9900 N.pl3     1 <0>        -0.8212
     18 N5          0.1901   -4.0434    0.0833 N.am      1 <0>        -0.6673
     19 C13        -0.2921   -4.7063    1.1531 C.2       1 <0>         0.5630
     20 O2         -0.8941   -4.1041    2.0207 O.2       1 <0>        -0.5096
     21 C14        -0.0888   -6.1656    1.2715 C.ar      1 <0>        -0.1397
     22 C15         0.6071   -6.8593    0.2798 C.ar      1 <0>        -0.0539
     23 C16         0.7932   -8.2210    0.3964 C.ar      1 <0>        -0.1228
     24 C17         0.2919   -8.8996    1.4933 C.ar      1 <0>        -0.0417
     25 C18        -0.3986   -8.2182    2.4796 C.ar      1 <0>        -0.1883
     26 C19        -0.5868   -6.8551    2.3781 C.ar      1 <0>        -0.0065
     27 C20        -0.9410   -8.9654    3.6707 C.3       1 <0>         0.5099
     28 F1         -0.6225  -10.3227    3.5542 F         1 <0>        -0.1743
     29 F2         -0.3730   -8.4519    4.8415 F         1 <0>        -0.1725
     30 F3         -2.3310   -8.8154    3.7219 F         1 <0>        -0.1723
     31 H1          0.8094    2.0513   -0.2063 H         1 <0>         0.0766
     32 H2         -0.7277    1.9030   -1.0915 H         1 <0>         0.0616
     33 H3         -0.7294    1.9915    0.6863 H         1 <0>         0.1032
     34 H4         -0.3584   -0.1535   -2.2111 H         1 <0>         0.1386
     35 H5         -0.1937   -2.6038   -2.0986 H         1 <0>         0.1343
     36 H6          0.3678   -2.3868    2.1337 H         1 <0>         0.1374
     37 H7          0.5750   -1.2635    3.5769 H         1 <0>         0.4130
     38 H8          1.4362    2.2146    3.5942 H         1 <0>         0.1849
     39 H9          0.1309   -1.0385    6.0585 H         1 <0>         0.1708
     40 H10         1.7528    3.6362    7.9029 H         1 <0>         0.4154
     41 H11         1.2448    2.3593    8.8694 H         1 <0>         0.4148
     42 H12         0.6012   -4.5333   -0.6460 H         1 <0>         0.4129
     43 H13         0.9985   -6.3310   -0.5770 H         1 <0>         0.1374
     44 H14         1.3310   -8.7589   -0.3703 H         1 <0>         0.1467
     45 H15         0.4400   -9.9659    1.5796 H         1 <0>         0.1477
     46 H16        -1.1222   -6.3236    3.1510 H         1 <0>         0.1504
@<TRIPOS>BOND
     1    1    2 1
     2    1   31 1
     3    1   32 1
     4    1   33 1
     5    2    7 ar
     6    2    3 ar
     7    3    4 ar
     8    3   34 1
     9    4    5 ar
    10    4   35 1
    11    5    6 ar
    12    5   18 1
    13    6    7 ar
    14    6   36 1
    15    7    8 1
    16    8    9 2
    17    8   10 am
    18   10   11 1
    19   10   37 1
    20   11   16 ar
    21   11   12 ar
    22   12   13 ar
    23   12   38 1
    24   13   14 ar
    25   14   15 ar
    26   14   17 1
    27   15   16 ar
    28   16   39 1
    29   17   40 1
    30   17   41 1
    31   18   19 am
    32   18   42 1
    33   19   20 2
    34   19   21 1
    35   21   26 ar
    36   21   22 ar
    37   22   23 ar
    38   22   43 1
    39   23   24 ar
    40   23   44 1
    41   24   25 ar
    42   24   45 1
    43   25   26 ar
    44   25   27 1
    45   26   46 1
    46   27   28 1
    47   27   29 1
    48   27   30 1
@<TRIPOS>MOLECULE
CHEMBL437754
   75    80     0     0     0
SMALL
USER_CHARGES

@<TRIPOS>ATOM
      1 C1         -0.8825    1.0547    0.8895 C.ar      1 <0>        -0.0956
      2 C2          0.2254    1.8114    0.5511 C.ar      1 <0>        -0.1103
      3 C3          1.4494    1.2027    0.3648 C.ar      1 <0>        -0.0888
      4 C4          1.5687   -0.1790    0.5184 C.ar      1 <0>        -0.0588
      5 C5          0.4476   -0.9365    0.8598 C.ar      1 <0>        -0.1130
      6 C6         -0.7708   -0.3158    1.0433 C.ar      1 <0>        -0.1113
      7 C7          2.8787   -0.8385    0.3196 C.2       1 <0>        -0.0654
      8 C8          3.2514   -1.7660   -0.7588 C.ar      1 <0>        -0.1905
      9 C9          2.5806   -2.3045   -1.8655 C.ar      1 <0>         0.3705
     10 C10         3.2834   -3.1787   -2.6905 C.ar      1 <0>        -0.2372
     11 C11         4.5991   -3.4778   -2.3895 C.ar      1 <0>         0.2190
     12 N1          5.2048   -2.9569   -1.3415 N.ar      1 <0>        -0.4803
     13 C12         4.5879   -2.1176   -0.5188 C.ar      1 <0>         0.2919
     14 O1          4.9872   -1.4686    0.5939 O.3       1 <0>        -0.1562
     15 C13         3.9962   -0.7072    1.0974 C.2       1 <0>         0.1063
     16 C14         4.0992    0.1351    2.3036 C.ar      1 <0>        -0.0710
     17 C15         3.0998    0.0874    3.2794 C.ar      1 <0>        -0.0294
     18 C16         3.2004    0.8764    4.4048 C.ar      1 <0>        -0.1387
     19 C17         4.2926    1.7184    4.5699 C.ar      1 <0>         0.1483
     20 C18         5.2883    1.7691    3.6029 C.ar      1 <0>        -0.2036
     21 C19         5.1995    0.9793    2.4772 C.ar      1 <0>        -0.0399
     22 O2          4.3871    2.4950    5.6807 O.3       1 <0>        -0.3219
     23 C20         5.5362    3.3378    5.7872 C.3       1 <0>         0.0231
     24 C21         5.4679    4.1306    7.0940 C.3       1 <0>        -0.0020
     25 N2          5.5409    3.2052    8.2325 N.4       1 <0>        -0.3846
     26 C22         5.3226    3.9479    9.4796 C.3       1 <0>        -0.0076
     27 C23         5.3171    2.9766   10.6619 C.3       1 <0>        -0.1468
     28 C24         6.6647    2.2521   10.7267 C.3       1 <0>        -0.1402
     29 C25         6.9159    1.5420    9.3933 C.3       1 <0>        -0.1451
     30 C26         6.8622    2.5665    8.2580 C.3       1 <0>        -0.0134
     31 N3          1.2560   -1.9765   -2.1307 N.pl3     1 <0>        -0.6674
     32 C27         0.5775   -2.5529   -3.2942 C.3       1 <0>         0.0954
     33 C28        -0.8601   -2.0329   -3.3556 C.3       1 <0>        -0.0848
     34 C29        -1.5581   -2.6259   -4.5523 C.ar      1 <0>        -0.1531
     35 C30        -1.5161   -1.9822   -5.7799 C.ar      1 <0>        -0.0668
     36 C31        -2.1727   -2.5645   -6.8530 C.ar      1 <0>        -0.1664
     37 C32        -2.8426   -3.7589   -6.6652 C.ar      1 <0>         0.1105
     38 N4         -2.8617   -4.3427   -5.4831 N.ar      1 <0>        -0.4787
     39 C33        -2.2432   -3.8208   -4.4417 C.ar      1 <0>         0.1091
     40 H1         -1.8375    1.5364    1.0386 H         1 <0>         0.1338
     41 H2          0.1316    2.8807    0.4322 H         1 <0>         0.1334
     42 H3          2.3133    1.7944    0.1004 H         1 <0>         0.1259
     43 H4          0.5334   -2.0063    0.9797 H         1 <0>         0.1270
     44 H5         -1.6392   -0.9008    1.3079 H         1 <0>         0.1352
     45 H6          2.8066   -3.6178   -3.5544 H         1 <0>         0.1884
     46 H7          5.1443   -4.1559   -3.0293 H         1 <0>         0.2231
     47 H8          2.2498   -0.5665    3.1515 H         1 <0>         0.1431
     48 H9          2.4285    0.8402    5.1593 H         1 <0>         0.1465
     49 H10         6.1358    2.4254    3.7356 H         1 <0>         0.1397
     50 H11         5.9764    1.0161    1.7279 H         1 <0>         0.1384
     51 H12         6.4378    2.7252    5.7806 H         1 <0>         0.0902
     52 H13         5.5598    4.0282    4.9441 H         1 <0>         0.1133
     53 H14         6.3034    4.8291    7.1393 H         1 <0>         0.1524
     54 H15         4.5294    4.6835    7.1348 H         1 <0>         0.1447
     55 H16         6.1221    4.6769    9.6125 H         1 <0>         0.1308
     56 H17         4.3646    4.4656    9.4307 H         1 <0>         0.1322
     57 H18         5.1566    3.5302   11.5871 H         1 <0>         0.1151
     58 H19         4.5178    2.2473   10.5301 H         1 <0>         0.0878
     59 H20         7.4591    2.9757   10.9096 H         1 <0>         0.0835
     60 H21         6.6458    1.5184   11.5325 H         1 <0>         0.0962
     61 H22         7.8984    1.0702    9.4117 H         1 <0>         0.1129
     62 H23         6.1498    0.7829    9.2352 H         1 <0>         0.0870
     63 H24         7.0409    2.0642    7.3072 H         1 <0>         0.1251
     64 H25         7.6289    3.3248    8.4170 H         1 <0>         0.1319
     65 H26         0.7810   -1.3660   -1.5455 H         1 <0>         0.4223
     66 H27         1.1069   -2.2658   -4.2027 H         1 <0>         0.0932
     67 H28         0.5675   -3.6394   -3.2075 H         1 <0>         0.0950
     68 H29        -1.3895   -2.3201   -2.4470 H         1 <0>         0.0898
     69 H30        -0.8501   -0.9464   -3.4422 H         1 <0>         0.0876
     70 H31        -0.9849   -1.0492   -5.8970 H         1 <0>         0.1350
     71 H32        -2.1612   -2.0907   -7.8235 H         1 <0>         0.1419
     72 H33        -3.3565   -4.2190   -7.4961 H         1 <0>         0.1627
     73 H34        -2.2766   -4.3308   -3.4903 H         1 <0>         0.1543
     74 H35         4.8282    2.4975    8.1357 H         1 <0>         0.4280
     75 H36         6.1290   -3.1937   -1.1663 H         1 <0>         0.4474
@<TRIPOS>BOND
     1    1    6 ar
     2    1    2 ar
     3    1   40 1
     4    2    3 ar
     5    2   41 1
     6    3    4 ar
     7    3   42 1
     8    4    5 ar
     9    4    7 1
    10    5    6 ar
    11    5   43 1
    12    6   44 1
    13    7   15 2
    14    7    8 1
    15    8   13 ar
    16    8    9 ar
    17    9   10 ar
    18    9   31 1
    19   10   11 ar
    20   10   45 1
    21   11   12 ar
    22   11   46 1
    23   12   13 ar
    24   12   75 1
    25   13   14 1
    26   14   15 1
    27   15   16 1
    28   16   21 ar
    29   16   17 ar
    30   17   18 ar
    31   17   47 1
    32   18   19 ar
    33   18   48 1
    34   19   20 ar
    35   19   22 1
    36   20   21 ar
    37   20   49 1
    38   21   50 1
    39   22   23 1
    40   23   24 1
    41   23   51 1
    42   23   52 1
    43   24   25 1
    44   24   53 1
    45   24   54 1
    46   25   30 1
    47   25   26 1
    48   25   74 1
    49   26   27 1
    50   26   55 1
    51   26   56 1
    52   27   28 1
    53   27   57 1
    54   27   58 1
    55   28   29 1
    56   28   59 1
    57   28   60 1
    58   29   30 1
    59   29   61 1
    60   29   62 1
    61   30   63 1
    62   30   64 1
    63   31   32 1
    64   31   65 1
    65   32   33 1
    66   32   66 1
    67   32   67 1
    68   33   34 1
    69   33   68 1
    70   33   69 1
    71   34   39 ar
    72   34   35 ar
    73   35   36 ar
    74   35   70 1
    75   36   37 ar
    76   36   71 1
    77   37   38 ar
    78   37   72 1
    79   38   39 ar
    80   39   73 1
@<TRIPOS>MOLECULE
CHEMBL437754__1
   74    79     0     0     0
SMALL
USER_CHARGES

@<TRIPOS>ATOM
      1 C1         -0.8825    1.0547    0.8895 C.ar      1 <0>        -0.1119
      2 C2          0.2254    1.8114    0.5511 C.ar      1 <0>        -0.1144
      3 C3          1.4494    1.2027    0.3648 C.ar      1 <0>        -0.0983
      4 C4          1.5687   -0.1790    0.5184 C.ar      1 <0>        -0.0260
      5 C5          0.4476   -0.9365    0.8598 C.ar      1 <0>        -0.1128
      6 C6         -0.7708   -0.3158    1.0433 C.ar      1 <0>        -0.1146
      7 C7          2.8787   -0.8385    0.3196 C.2       1 <0>        -0.0869
      8 C8          3.2514   -1.7660   -0.7588 C.ar      1 <0>        -0.2370
      9 C9          2.5806   -2.3045   -1.8655 C.ar      1 <0>         0.3096
     10 C10         3.2834   -3.1787   -2.6905 C.ar      1 <0>        -0.2785
     11 C11         4.5991   -3.4778   -2.3895 C.ar      1 <0>         0.1956
     12 N1          5.2048   -2.9569   -1.3415 N.ar      1 <0>        -0.5163
     13 C12         4.5879   -2.1176   -0.5188 C.ar      1 <0>         0.3073
     14 O1          4.9872   -1.4686    0.5939 O.3       1 <0>        -0.1737
     15 C13         3.9962   -0.7072    1.0974 C.2       1 <0>         0.0657
     16 C14         4.0992    0.1351    2.3036 C.ar      1 <0>        -0.0379
     17 C15         3.0998    0.0874    3.2794 C.ar      1 <0>        -0.0413
     18 C16         3.2004    0.8764    4.4048 C.ar      1 <0>        -0.1379
     19 C17         4.2926    1.7184    4.5699 C.ar      1 <0>         0.1263
     20 C18         5.2883    1.7691    3.6029 C.ar      1 <0>        -0.2015
     21 C19         5.1995    0.9793    2.4772 C.ar      1 <0>        -0.0495
     22 O2          4.3871    2.4950    5.6807 O.3       1 <0>        -0.3259
     23 C20         5.5362    3.3378    5.7872 C.3       1 <0>         0.0238
     24 C21         5.4679    4.1306    7.0940 C.3       1 <0>        -0.0009
     25 N2          5.5409    3.2052    8.2325 N.4       1 <0>        -0.3844
     26 C22         5.3226    3.9479    9.4796 C.3       1 <0>        -0.0070
     27 C23         5.3171    2.9766   10.6619 C.3       1 <0>        -0.1467
     28 C24         6.6647    2.2521   10.7267 C.3       1 <0>        -0.1390
     29 C25         6.9159    1.5420    9.3933 C.3       1 <0>        -0.1456
     30 C26         6.8622    2.5665    8.2580 C.3       1 <0>        -0.0135
     31 N3          1.2560   -1.9765   -2.1307 N.pl3     1 <0>        -0.7244
     32 C27         0.5775   -2.5529   -3.2942 C.3       1 <0>         0.1211
     33 C28        -0.8601   -2.0329   -3.3556 C.3       1 <0>        -0.0848
     34 C29        -1.5581   -2.6259   -4.5523 C.ar      1 <0>        -0.1397
     35 C30        -1.5161   -1.9822   -5.7799 C.ar      1 <0>        -0.0691
     36 C31        -2.1727   -2.5645   -6.8530 C.ar      1 <0>        -0.1684
     37 C32        -2.8426   -3.7589   -6.6652 C.ar      1 <0>         0.1010
     38 N4         -2.8617   -4.3427   -5.4831 N.ar      1 <0>        -0.4811
     39 C33        -2.2432   -3.8208   -4.4417 C.ar      1 <0>         0.1062
     40 H1         -1.8375    1.5364    1.0386 H         1 <0>         0.1259
     41 H2          0.1316    2.8807    0.4322 H         1 <0>         0.1259
     42 H3          2.3133    1.7944    0.1004 H         1 <0>         0.1215
     43 H4          0.5334   -2.0063    0.9797 H         1 <0>         0.1245
     44 H5         -1.6392   -0.9008    1.3079 H         1 <0>         0.1281
     45 H6          2.8066   -3.6178   -3.5544 H         1 <0>         0.1437
     46 H7          5.1443   -4.1559   -3.0293 H         1 <0>         0.1734
     47 H8          2.2498   -0.5665    3.1515 H         1 <0>         0.1400
     48 H9          2.4285    0.8402    5.1593 H         1 <0>         0.1397
     49 H10         6.1358    2.4254    3.7356 H         1 <0>         0.1336
     50 H11         5.9764    1.0161    1.7279 H         1 <0>         0.1377
     51 H12         6.4378    2.7252    5.7806 H         1 <0>         0.0880
     52 H13         5.5598    4.0282    4.9441 H         1 <0>         0.1110
     53 H14         6.3034    4.8291    7.1393 H         1 <0>         0.1495
     54 H15         4.5294    4.6835    7.1348 H         1 <0>         0.1429
     55 H16         6.1221    4.6769    9.6125 H         1 <0>         0.1292
     56 H17         4.3646    4.4656    9.4307 H         1 <0>         0.1310
     57 H18         5.1566    3.5302   11.5871 H         1 <0>         0.1131
     58 H19         4.5178    2.2473   10.5301 H         1 <0>         0.0880
     59 H20         7.4591    2.9757   10.9096 H         1 <0>         0.0821
     60 H21         6.6458    1.5184   11.5325 H         1 <0>         0.0948
     61 H22         7.8984    1.0702    9.4117 H         1 <0>         0.1126
     62 H23         6.1498    0.7829    9.2352 H         1 <0>         0.0881
     63 H24         7.0409    2.0642    7.3072 H         1 <0>         0.1276
     64 H25         7.6289    3.3248    8.4170 H         1 <0>         0.1305
     65 H26         0.7810   -1.3660   -1.5455 H         1 <0>         0.4057
     66 H27         1.1069   -2.2658   -4.2027 H         1 <0>         0.0708
     67 H28         0.5675   -3.6394   -3.2075 H         1 <0>         0.0727
     68 H29        -1.3895   -2.3201   -2.4470 H         1 <0>         0.0840
     69 H30        -0.8501   -0.9464   -3.4422 H         1 <0>         0.0818
     70 H31        -0.9849   -1.0492   -5.8970 H         1 <0>         0.1343
     71 H32        -2.1612   -2.0907   -7.8235 H         1 <0>         0.1383
     72 H33        -3.3565   -4.2190   -7.4961 H         1 <0>         0.1587
     73 H34        -2.2766   -4.3308   -3.4903 H         1 <0>         0.1543
     74 H35         4.8282    2.4975    8.1357 H         1 <0>         0.4293
@<TRIPOS>BOND
     1    1    6 ar
     2    1    2 ar
     3    1   40 1
     4    2    3 ar
     5    2   41 1
     6    3    4 ar
     7    3   42 1
     8    4    5 ar
     9    4    7 1
    10    5    6 ar
    11    5   43 1
    12    6   44 1
    13    7   15 2
    14    7    8 1
    15    8   13 ar
    16    8    9 ar
    17    9   10 ar
    18    9   31 1
    19   10   11 ar
    20   10   45 1
    21   11   12 ar
    22   11   46 1
    23   12   13 ar
    24   13   14 1
    25   14   15 1
    26   15   16 1
    27   16   21 ar
    28   16   17 ar
    29   17   18 ar
    30   17   47 1
    31   18   19 ar
    32   18   48 1
    33   19   20 ar
    34   19   22 1
    35   20   21 ar
    36   20   49 1
    37   21   50 1
    38   22   23 1
    39   23   24 1
    40   23   51 1
    41   23   52 1
    42   24   25 1
    43   24   53 1
    44   24   54 1
    45   25   30 1
    46   25   26 1
    47   25   74 1
    48   26   27 1
    49   26   55 1
    50   26   56 1
    51   27   28 1
    52   27   57 1
    53   27   58 1
    54   28   29 1
    55   28   59 1
    56   28   60 1
    57   29   30 1
    58   29   61 1
    59   29   62 1
    60   30   63 1
    61   30   64 1
    62   31   32 1
    63   31   65 1
    64   32   33 1
    65   32   66 1
    66   32   67 1
    67   33   34 1
    68   33   68 1
    69   33   69 1
    70   34   39 ar
    71   34   35 ar
    72   35   36 ar
    73   35   70 1
    74   36   37 ar
    75   36   71 1
    76   37   38 ar
    77   37   72 1
    78   38   39 ar
    79   39   73 1
@<TRIPOS>MOLECULE
CHEMBL239591
   77    82     0     0     0
SMALL
USER_CHARGES

@<TRIPOS>ATOM
      1 C1         -0.8825    1.0547    0.8895 C.ar      1 <0>        -0.0985
      2 C2          0.2254    1.8114    0.5511 C.ar      1 <0>        -0.1095
      3 C3          1.4494    1.2027    0.3648 C.ar      1 <0>        -0.0875
      4 C4          1.5687   -0.1790    0.5184 C.ar      1 <0>        -0.0534
      5 C5          0.4476   -0.9365    0.8598 C.ar      1 <0>        -0.1145
      6 C6         -0.7708   -0.3158    1.0433 C.ar      1 <0>        -0.1147
      7 C7          2.8787   -0.8385    0.3196 C.2       1 <0>        -0.0775
      8 C8          3.2514   -1.7660   -0.7588 C.ar      1 <0>        -0.1855
      9 C9          2.5806   -2.3045   -1.8655 C.ar      1 <0>         0.3709
     10 C10         3.2834   -3.1787   -2.6905 C.ar      1 <0>        -0.2392
     11 C11         4.5991   -3.4778   -2.3895 C.ar      1 <0>         0.2251
     12 N1          5.2048   -2.9569   -1.3415 N.ar      1 <0>        -0.4736
     13 C12         4.5879   -2.1176   -0.5188 C.ar      1 <0>         0.2930
     14 O1          4.9872   -1.4686    0.5939 O.3       1 <0>        -0.1537
     15 C13         3.9962   -0.7072    1.0974 C.2       1 <0>         0.1225
     16 C14         4.0992    0.1351    2.3036 C.ar      1 <0>        -0.0813
     17 C15         3.0998    0.0874    3.2794 C.ar      1 <0>        -0.0284
     18 C16         3.2004    0.8764    4.4048 C.ar      1 <0>        -0.1399
     19 C17         4.2926    1.7184    4.5699 C.ar      1 <0>         0.1543
     20 C18         5.2883    1.7691    3.6029 C.ar      1 <0>        -0.2034
     21 C19         5.1995    0.9793    2.4772 C.ar      1 <0>        -0.0367
     22 O2          4.3871    2.4950    5.6807 O.3       1 <0>        -0.3208
     23 C20         5.5362    3.3378    5.7872 C.3       1 <0>         0.0228
     24 C21         5.4679    4.1306    7.0940 C.3       1 <0>        -0.0022
     25 N2          5.5409    3.2052    8.2325 N.4       1 <0>        -0.3846
     26 C22         5.3226    3.9479    9.4796 C.3       1 <0>        -0.0078
     27 C23         5.3171    2.9766   10.6619 C.3       1 <0>        -0.1467
     28 C24         6.6647    2.2521   10.7267 C.3       1 <0>        -0.1408
     29 C25         6.9159    1.5420    9.3933 C.3       1 <0>        -0.1448
     30 C26         6.8622    2.5665    8.2580 C.3       1 <0>        -0.0135
     31 N3          1.2560   -1.9765   -2.1307 N.pl3     1 <0>        -0.6824
     32 C27         0.5775   -2.5529   -3.2942 C.3       1 <0>         0.0986
     33 C28        -0.8601   -2.0329   -3.3556 C.3       1 <0>        -0.1599
     34 C29        -1.5687   -2.6349   -4.5706 C.3       1 <0>         0.0988
     35 N4         -2.9453   -2.1370   -4.6294 N.pl3     1 <0>        -0.4150
     36 C30        -4.0414   -2.7080   -4.0410 C.2       1 <0>         0.0229
     37 C31        -5.0971   -1.9294   -4.3456 C.2       1 <0>         0.0123
     38 N5         -4.6576   -0.9108   -5.0994 N.pl3     1 <0>        -0.4720
     39 C32        -3.3688   -1.0258   -5.2693 C.cat     1 <0>         0.2906
     40 H1         -1.8375    1.5364    1.0386 H         1 <0>         0.1328
     41 H2          0.1316    2.8807    0.4322 H         1 <0>         0.1345
     42 H3          2.3133    1.7944    0.1004 H         1 <0>         0.1278
     43 H4          0.5334   -2.0063    0.9797 H         1 <0>         0.1265
     44 H5         -1.6392   -0.9008    1.3079 H         1 <0>         0.1331
     45 H6          2.8066   -3.6178   -3.5544 H         1 <0>         0.1886
     46 H7          5.1443   -4.1559   -3.0293 H         1 <0>         0.2259
     47 H8          2.2498   -0.5665    3.1515 H         1 <0>         0.1416
     48 H9          2.4285    0.8402    5.1593 H         1 <0>         0.1476
     49 H10         6.1358    2.4254    3.7356 H         1 <0>         0.1419
     50 H11         5.9764    1.0161    1.7279 H         1 <0>         0.1392
     51 H12         6.4378    2.7252    5.7806 H         1 <0>         0.0914
     52 H13         5.5598    4.0282    4.9441 H         1 <0>         0.1138
     53 H14         6.3034    4.8291    7.1393 H         1 <0>         0.1536
     54 H15         4.5294    4.6835    7.1348 H         1 <0>         0.1448
     55 H16         6.1221    4.6769    9.6125 H         1 <0>         0.1316
     56 H17         4.3646    4.4656    9.4307 H         1 <0>         0.1322
     57 H18         5.1566    3.5302   11.5871 H         1 <0>         0.1160
     58 H19         4.5178    2.2473   10.5301 H         1 <0>         0.0874
     59 H20         7.4591    2.9757   10.9096 H         1 <0>         0.0843
     60 H21         6.6458    1.5184   11.5325 H         1 <0>         0.0969
     61 H22         7.8984    1.0702    9.4117 H         1 <0>         0.1135
     62 H23         6.1498    0.7829    9.2352 H         1 <0>         0.0865
     63 H24         7.0409    2.0642    7.3072 H         1 <0>         0.1243
     64 H25         7.6289    3.3248    8.4170 H         1 <0>         0.1327
     65 H26         0.7810   -1.3660   -1.5455 H         1 <0>         0.4226
     66 H27         1.1069   -2.2658   -4.2027 H         1 <0>         0.0982
     67 H28         0.5675   -3.6394   -3.2075 H         1 <0>         0.0989
     68 H29        -1.3895   -2.3201   -2.4470 H         1 <0>         0.0952
     69 H30        -0.8501   -0.9464   -3.4422 H         1 <0>         0.0924
     70 H31        -1.0394   -2.3478   -5.4791 H         1 <0>         0.1289
     71 H32        -1.5788   -3.7214   -4.4839 H         1 <0>         0.1318
     72 H33        -4.0567   -3.6099   -3.4470 H         1 <0>         0.2247
     73 H34        -6.1185   -2.0960   -4.0370 H         1 <0>         0.2270
     74 H35        -2.7448   -0.3464   -5.8309 H         1 <0>         0.2608
     75 H36         4.8282    2.4975    8.1357 H         1 <0>         0.4272
     76 H37         6.1290   -3.1937   -1.1663 H         1 <0>         0.4511
     77 H38        -5.2099   -0.1988   -5.4585 H         1 <0>         0.4690
@<TRIPOS>BOND
     1    1    6 ar
     2    1    2 ar
     3    1   40 1
     4    2    3 ar
     5    2   41 1
     6    3    4 ar
     7    3   42 1
     8    4    5 ar
     9    4    7 1
    10    5    6 ar
    11    5   43 1
    12    6   44 1
    13    7   15 2
    14    7    8 1
    15    8   13 ar
    16    8    9 ar
    17    9   10 ar
    18    9   31 1
    19   10   11 ar
    20   10   45 1
    21   11   12 ar
    22   11   46 1
    23   12   13 ar
    24   12   76 1
    25   13   14 1
    26   14   15 1
    27   15   16 1
    28   16   21 ar
    29   16   17 ar
    30   17   18 ar
    31   17   47 1
    32   18   19 ar
    33   18   48 1
    34   19   20 ar
    35   19   22 1
    36   20   21 ar
    37   20   49 1
    38   21   50 1
    39   22   23 1
    40   23   24 1
    41   23   51 1
    42   23   52 1
    43   24   25 1
    44   24   53 1
    45   24   54 1
    46   25   30 1
    47   25   26 1
    48   25   75 1
    49   26   27 1
    50   26   55 1
    51   26   56 1
    52   27   28 1
    53   27   57 1
    54   27   58 1
    55   28   29 1
    56   28   59 1
    57   28   60 1
    58   29   30 1
    59   29   61 1
    60   29   62 1
    61   30   63 1
    62   30   64 1
    63   31   32 1
    64   31   65 1
    65   32   33 1
    66   32   66 1
    67   32   67 1
    68   33   34 1
    69   33   68 1
    70   33   69 1
    71   34   35 1
    72   34   70 1
    73   34   71 1
    74   35   39 1
    75   35   36 1
    76   36   37 2
    77   36   72 1
    78   37   38 1
    79   37   73 1
    80   38   39 2
    81   38   77 1
    82   39   74 1
@<TRIPOS>MOLECULE
CHEMBL239591__1
   76    81     0     0     0
SMALL
USER_CHARGES

@<TRIPOS>ATOM
      1 C1         -0.8825    1.0547    0.8895 C.ar      1 <0>        -0.0946
      2 C2          0.2254    1.8114    0.5511 C.ar      1 <0>        -0.1097
      3 C3          1.4494    1.2027    0.3648 C.ar      1 <0>        -0.0886
      4 C4          1.5687   -0.1790    0.5184 C.ar      1 <0>        -0.0594
      5 C5          0.4476   -0.9365    0.8598 C.ar      1 <0>        -0.1135
      6 C6         -0.7708   -0.3158    1.0433 C.ar      1 <0>        -0.1113
      7 C7          2.8787   -0.8385    0.3196 C.2       1 <0>        -0.0659
      8 C8          3.2514   -1.7660   -0.7588 C.ar      1 <0>        -0.1900
      9 C9          2.5806   -2.3045   -1.8655 C.ar      1 <0>         0.3706
     10 C10         3.2834   -3.1787   -2.6905 C.ar      1 <0>        -0.2380
     11 C11         4.5991   -3.4778   -2.3895 C.ar      1 <0>         0.2200
     12 N1          5.2048   -2.9569   -1.3415 N.ar      1 <0>        -0.4793
     13 C12         4.5879   -2.1176   -0.5188 C.ar      1 <0>         0.2918
     14 O1          4.9872   -1.4686    0.5939 O.3       1 <0>        -0.1557
     15 C13         3.9962   -0.7072    1.0974 C.2       1 <0>         0.1081
     16 C14         4.0992    0.1351    2.3036 C.ar      1 <0>        -0.0721
     17 C15         3.0998    0.0874    3.2794 C.ar      1 <0>        -0.0291
     18 C16         3.2004    0.8764    4.4048 C.ar      1 <0>        -0.1387
     19 C17         4.2926    1.7184    4.5699 C.ar      1 <0>         0.1490
     20 C18         5.2883    1.7691    3.6029 C.ar      1 <0>        -0.2036
     21 C19         5.1995    0.9793    2.4772 C.ar      1 <0>        -0.0395
     22 O2          4.3871    2.4950    5.6807 O.3       1 <0>        -0.3217
     23 C20         5.5362    3.3378    5.7872 C.3       1 <0>         0.0231
     24 C21         5.4679    4.1306    7.0940 C.3       1 <0>        -0.0020
     25 N2          5.5409    3.2052    8.2325 N.4       1 <0>        -0.3846
     26 C22         5.3226    3.9479    9.4796 C.3       1 <0>        -0.0076
     27 C23         5.3171    2.9766   10.6619 C.3       1 <0>        -0.1468
     28 C24         6.6647    2.2521   10.7267 C.3       1 <0>        -0.1402
     29 C25         6.9159    1.5420    9.3933 C.3       1 <0>        -0.1451
     30 C26         6.8622    2.5665    8.2580 C.3       1 <0>        -0.0134
     31 N3          1.2560   -1.9765   -2.1307 N.pl3     1 <0>        -0.6691
     32 C27         0.5775   -2.5529   -3.2942 C.3       1 <0>         0.0952
     33 C28        -0.8601   -2.0329   -3.3556 C.3       1 <0>        -0.1539
     34 C29        -1.5687   -2.6349   -4.5706 C.3       1 <0>         0.1118
     35 N4         -2.9453   -2.1370   -4.6294 N.pl3     1 <0>        -0.4669
     36 C30        -4.0414   -2.7083   -4.0414 C.2       1 <0>        -0.0600
     37 C31        -5.0971   -1.9296   -4.3459 C.2       1 <0>        -0.0201
     38 N5         -4.6575   -0.9106   -5.0992 N.2       1 <0>        -0.4875
     39 C32        -3.3687   -1.0256   -5.2689 C.2       1 <0>         0.1827
     40 H1         -1.8375    1.5364    1.0386 H         1 <0>         0.1342
     41 H2          0.1316    2.8807    0.4322 H         1 <0>         0.1340
     42 H3          2.3133    1.7944    0.1004 H         1 <0>         0.1262
     43 H4          0.5334   -2.0063    0.9797 H         1 <0>         0.1260
     44 H5         -1.6392   -0.9008    1.3079 H         1 <0>         0.1346
     45 H6          2.8066   -3.6178   -3.5544 H         1 <0>         0.1891
     46 H7          5.1443   -4.1559   -3.0293 H         1 <0>         0.2236
     47 H8          2.2498   -0.5665    3.1515 H         1 <0>         0.1428
     48 H9          2.4285    0.8402    5.1593 H         1 <0>         0.1467
     49 H10         6.1358    2.4254    3.7356 H         1 <0>         0.1399
     50 H11         5.9764    1.0161    1.7279 H         1 <0>         0.1385
     51 H12         6.4378    2.7252    5.7806 H         1 <0>         0.0903
     52 H13         5.5598    4.0282    4.9441 H         1 <0>         0.1134
     53 H14         6.3034    4.8291    7.1393 H         1 <0>         0.1525
     54 H15         4.5294    4.6835    7.1348 H         1 <0>         0.1448
     55 H16         6.1221    4.6769    9.6125 H         1 <0>         0.1309
     56 H17         4.3646    4.4656    9.4307 H         1 <0>         0.1322
     57 H18         5.1566    3.5302   11.5871 H         1 <0>         0.1152
     58 H19         4.5178    2.2473   10.5301 H         1 <0>         0.0878
     59 H20         7.4591    2.9757   10.9096 H         1 <0>         0.0835
     60 H21         6.6458    1.5184   11.5325 H         1 <0>         0.0962
     61 H22         7.8984    1.0702    9.4117 H         1 <0>         0.1129
     62 H23         6.1498    0.7829    9.2352 H         1 <0>         0.0870
     63 H24         7.0409    2.0642    7.3072 H         1 <0>         0.1250
     64 H25         7.6289    3.3248    8.4170 H         1 <0>         0.1319
     65 H26         0.7810   -1.3660   -1.5455 H         1 <0>         0.4231
     66 H27         1.1069   -2.2658   -4.2027 H         1 <0>         0.0963
     67 H28         0.5675   -3.6394   -3.2075 H         1 <0>         0.0963
     68 H29        -1.3895   -2.3201   -2.4470 H         1 <0>         0.0857
     69 H30        -0.8501   -0.9464   -3.4422 H         1 <0>         0.0859
     70 H31        -1.0394   -2.3478   -5.4791 H         1 <0>         0.1016
     71 H32        -1.5788   -3.7214   -4.4839 H         1 <0>         0.0994
     72 H33        -4.0568   -3.6104   -3.4478 H         1 <0>         0.1752
     73 H34        -6.1186   -2.0963   -4.0375 H         1 <0>         0.1728
     74 H35        -2.7446   -0.3459   -5.8301 H         1 <0>         0.2046
     75 H36         4.8282    2.4975    8.1357 H         1 <0>         0.4279
     76 H37         6.1290   -3.1937   -1.1663 H         1 <0>         0.4479
@<TRIPOS>BOND
     1    1    6 ar
     2    1    2 ar
     3    1   40 1
     4    2    3 ar
     5    2   41 1
     6    3    4 ar
     7    3   42 1
     8    4    5 ar
     9    4    7 1
    10    5    6 ar
    11    5   43 1
    12    6   44 1
    13    7   15 2
    14    7    8 1
    15    8   13 ar
    16    8    9 ar
    17    9   10 ar
    18    9   31 1
    19   10   11 ar
    20   10   45 1
    21   11   12 ar
    22   11   46 1
    23   12   13 ar
    24   12   76 1
    25   13   14 1
    26   14   15 1
    27   15   16 1
    28   16   21 ar
    29   16   17 ar
    30   17   18 ar
    31   17   47 1
    32   18   19 ar
    33   18   48 1
    34   19   20 ar
    35   19   22 1
    36   20   21 ar
    37   20   49 1
    38   21   50 1
    39   22   23 1
    40   23   24 1
    41   23   51 1
    42   23   52 1
    43   24   25 1
    44   24   53 1
    45   24   54 1
    46   25   30 1
    47   25   26 1
    48   25   75 1
    49   26   27 1
    50   26   55 1
    51   26   56 1
    52   27   28 1
    53   27   57 1
    54   27   58 1
    55   28   29 1
    56   28   59 1
    57   28   60 1
    58   29   30 1
    59   29   61 1
    60   29   62 1
    61   30   63 1
    62   30   64 1
    63   31   32 1
    64   31   65 1
    65   32   33 1
    66   32   66 1
    67   32   67 1
    68   33   34 1
    69   33   68 1
    70   33   69 1
    71   34   35 1
    72   34   70 1
    73   34   71 1
    74   35   39 1
    75   35   36 1
    76   36   37 2
    77   36   72 1
    78   37   38 1
    79   37   73 1
    80   38   39 2
    81   39   74 1
@<TRIPOS>MOLECULE
CHEMBL393596
   81    86     0     0     0
SMALL
USER_CHARGES

@<TRIPOS>ATOM
      1 C1         -0.8825    1.0547    0.8895 C.ar      1 <0>        -0.0967
      2 C2          0.2254    1.8114    0.5511 C.ar      1 <0>        -0.1084
      3 C3          1.4494    1.2027    0.3648 C.ar      1 <0>        -0.0871
      4 C4          1.5687   -0.1790    0.5184 C.ar      1 <0>        -0.0551
      5 C5          0.4476   -0.9365    0.8598 C.ar      1 <0>        -0.1152
      6 C6         -0.7708   -0.3158    1.0433 C.ar      1 <0>        -0.1147
      7 C7          2.8787   -0.8385    0.3196 C.2       1 <0>        -0.0750
      8 C8          3.2514   -1.7660   -0.7588 C.ar      1 <0>        -0.1860
      9 C9          2.5806   -2.3045   -1.8655 C.ar      1 <0>         0.3724
     10 C10         3.2834   -3.1787   -2.6905 C.ar      1 <0>        -0.2397
     11 C11         4.5991   -3.4778   -2.3895 C.ar      1 <0>         0.2238
     12 N1          5.2048   -2.9569   -1.3415 N.ar      1 <0>        -0.4747
     13 C12         4.5879   -2.1176   -0.5188 C.ar      1 <0>         0.2924
     14 O1          4.9872   -1.4686    0.5939 O.3       1 <0>        -0.1538
     15 C13         3.9962   -0.7072    1.0974 C.2       1 <0>         0.1205
     16 C14         4.0992    0.1351    2.3036 C.ar      1 <0>        -0.0802
     17 C15         3.0998    0.0874    3.2794 C.ar      1 <0>        -0.0284
     18 C16         3.2004    0.8764    4.4048 C.ar      1 <0>        -0.1398
     19 C17         4.2926    1.7184    4.5699 C.ar      1 <0>         0.1538
     20 C18         5.2883    1.7691    3.6029 C.ar      1 <0>        -0.2034
     21 C19         5.1995    0.9793    2.4772 C.ar      1 <0>        -0.0370
     22 O2          4.3871    2.4950    5.6807 O.3       1 <0>        -0.3209
     23 C20         5.5362    3.3378    5.7872 C.3       1 <0>         0.0228
     24 C21         5.4679    4.1306    7.0940 C.3       1 <0>        -0.0022
     25 N2          5.5409    3.2052    8.2325 N.4       1 <0>        -0.3846
     26 C22         5.3226    3.9479    9.4796 C.3       1 <0>        -0.0079
     27 C23         5.3171    2.9766   10.6619 C.3       1 <0>        -0.1467
     28 C24         6.6647    2.2521   10.7267 C.3       1 <0>        -0.1407
     29 C25         6.9159    1.5420    9.3933 C.3       1 <0>        -0.1448
     30 C26         6.8622    2.5665    8.2580 C.3       1 <0>        -0.0135
     31 N3          1.2560   -1.9765   -2.1307 N.pl3     1 <0>        -0.6793
     32 C27         0.5775   -2.5529   -3.2942 C.3       1 <0>         0.0967
     33 C28        -0.8601   -2.0329   -3.3556 C.3       1 <0>         0.0405
     34 N4         -1.5405   -2.6109   -4.5222 N.3       1 <0>        -0.5347
     35 C29        -1.7058   -4.0633   -4.3693 C.3       1 <0>         0.0156
     36 C30        -2.3630   -4.6341   -5.6280 C.3       1 <0>        -0.0035
     37 N5         -3.6692   -3.9940   -5.8317 N.4       1 <0>        -0.5098
     38 C31        -3.4855   -2.5473   -6.0072 C.3       1 <0>        -0.0036
     39 C32        -2.8377   -1.9592   -4.7518 C.3       1 <0>         0.0255
     40 H1         -1.8375    1.5364    1.0386 H         1 <0>         0.1339
     41 H2          0.1316    2.8807    0.4322 H         1 <0>         0.1351
     42 H3          2.3133    1.7944    0.1004 H         1 <0>         0.1278
     43 H4          0.5334   -2.0063    0.9797 H         1 <0>         0.1253
     44 H5         -1.6392   -0.9008    1.3079 H         1 <0>         0.1327
     45 H6          2.8066   -3.6178   -3.5544 H         1 <0>         0.1869
     46 H7          5.1443   -4.1559   -3.0293 H         1 <0>         0.2249
     47 H8          2.2498   -0.5665    3.1515 H         1 <0>         0.1417
     48 H9          2.4285    0.8402    5.1593 H         1 <0>         0.1474
     49 H10         6.1358    2.4254    3.7356 H         1 <0>         0.1417
     50 H11         5.9764    1.0161    1.7279 H         1 <0>         0.1391
     51 H12         6.4378    2.7252    5.7806 H         1 <0>         0.0913
     52 H13         5.5598    4.0282    4.9441 H         1 <0>         0.1139
     53 H14         6.3034    4.8291    7.1393 H         1 <0>         0.1535
     54 H15         4.5294    4.6835    7.1348 H         1 <0>         0.1449
     55 H16         6.1221    4.6769    9.6125 H         1 <0>         0.1316
     56 H17         4.3646    4.4656    9.4307 H         1 <0>         0.1323
     57 H18         5.1566    3.5302   11.5871 H         1 <0>         0.1159
     58 H19         4.5178    2.2473   10.5301 H         1 <0>         0.0874
     59 H20         7.4591    2.9757   10.9096 H         1 <0>         0.0842
     60 H21         6.6458    1.5184   11.5325 H         1 <0>         0.0968
     61 H22         7.8984    1.0702    9.4117 H         1 <0>         0.1134
     62 H23         6.1498    0.7829    9.2352 H         1 <0>         0.0864
     63 H24         7.0409    2.0642    7.3072 H         1 <0>         0.1243
     64 H25         7.6289    3.3248    8.4170 H         1 <0>         0.1326
     65 H26         0.7810   -1.3660   -1.5455 H         1 <0>         0.4226
     66 H27         1.1069   -2.2658   -4.2027 H         1 <0>         0.1024
     67 H28         0.5675   -3.6394   -3.2075 H         1 <0>         0.0881
     68 H29        -1.3895   -2.3201   -2.4470 H         1 <0>         0.0605
     69 H30        -0.8501   -0.9464   -3.4422 H         1 <0>         0.1013
     70 H31        -0.7300   -4.5274   -4.2262 H         1 <0>         0.1228
     71 H32        -2.3369   -4.2685   -3.5046 H         1 <0>         0.0669
     72 H33        -1.7251   -4.4407   -6.4904 H         1 <0>         0.1425
     73 H34        -2.4995   -5.7092   -5.5109 H         1 <0>         0.1430
     74 H35        -4.1077   -4.3795   -6.6547 H         1 <0>         0.4404
     75 H36        -2.8419   -2.3646   -6.8678 H         1 <0>         0.1431
     76 H37        -4.4542   -2.0753   -6.1713 H         1 <0>         0.1447
     77 H38        -3.4874   -2.1297   -3.8934 H         1 <0>         0.0670
     78 H39        -2.6876   -0.8882   -4.8877 H         1 <0>         0.1276
     79 H40        -4.2555   -4.1633   -5.0282 H         1 <0>         0.4278
     80 H41         4.8282    2.4975    8.1357 H         1 <0>         0.4272
     81 H42         6.1290   -3.1937   -1.1663 H         1 <0>         0.4505
@<TRIPOS>BOND
     1    1    6 ar
     2    1    2 ar
     3    1   40 1
     4    2    3 ar
     5    2   41 1
     6    3    4 ar
     7    3   42 1
     8    4    5 ar
     9    4    7 1
    10    5    6 ar
    11    5   43 1
    12    6   44 1
    13    7   15 2
    14    7    8 1
    15    8   13 ar
    16    8    9 ar
    17    9   10 ar
    18    9   31 1
    19   10   11 ar
    20   10   45 1
    21   11   12 ar
    22   11   46 1
    23   12   13 ar
    24   12   81 1
    25   13   14 1
    26   14   15 1
    27   15   16 1
    28   16   21 ar
    29   16   17 ar
    30   17   18 ar
    31   17   47 1
    32   18   19 ar
    33   18   48 1
    34   19   20 ar
    35   19   22 1
    36   20   21 ar
    37   20   49 1
    38   21   50 1
    39   22   23 1
    40   23   24 1
    41   23   51 1
    42   23   52 1
    43   24   25 1
    44   24   53 1
    45   24   54 1
    46   25   30 1
    47   25   26 1
    48   25   80 1
    49   26   27 1
    50   26   55 1
    51   26   56 1
    52   27   28 1
    53   27   57 1
    54   27   58 1
    55   28   29 1
    56   28   59 1
    57   28   60 1
    58   29   30 1
    59   29   61 1
    60   29   62 1
    61   30   63 1
    62   30   64 1
    63   31   32 1
    64   31   65 1
    65   32   33 1
    66   32   66 1
    67   32   67 1
    68   33   34 1
    69   33   68 1
    70   33   69 1
    71   34   39 1
    72   34   35 1
    73   35   36 1
    74   35   70 1
    75   35   71 1
    76   36   37 1
    77   36   72 1
    78   36   73 1
    79   37   38 1
    80   37   74 1
    81   37   79 1
    82   38   39 1
    83   38   75 1
    84   38   76 1
    85   39   77 1
    86   39   78 1
@<TRIPOS>MOLECULE
CHEMBL240432
   73    78     0     0     0
SMALL
USER_CHARGES

@<TRIPOS>ATOM
      1 C1         -0.1164    1.1850    0.1378 C.ar      1 <0>        -0.0970
      2 C2          1.0277    1.9377   -0.0594 C.ar      1 <0>        -0.1090
      3 C3          2.2617    1.3227   -0.1082 C.ar      1 <0>        -0.0873
      4 C4          2.3545   -0.0614    0.0419 C.ar      1 <0>        -0.0538
      5 C5          1.1969   -0.8149    0.2405 C.ar      1 <0>        -0.1147
      6 C6         -0.0311   -0.1878    0.2873 C.ar      1 <0>        -0.1144
      7 C7          3.6750   -0.7277   -0.0098 C.2       1 <0>        -0.0782
      8 C8          4.1679   -1.6429   -1.0499 C.ar      1 <0>        -0.1850
      9 C9          3.6302   -2.1608   -2.2362 C.ar      1 <0>         0.3721
     10 C10         4.4210   -3.0287   -2.9848 C.ar      1 <0>        -0.2400
     11 C11         5.6899   -3.3416   -2.5342 C.ar      1 <0>         0.2229
     12 N1          6.1699   -2.8399   -1.4142 N.ar      1 <0>        -0.4744
     13 C12         5.4644   -2.0075   -0.6583 C.ar      1 <0>         0.2909
     14 O1          5.7325   -1.3771    0.5034 O.3       1 <0>        -0.1539
     15 C13         4.6930   -0.6155    0.8970 C.2       1 <0>         0.1251
     16 C14         4.6569    0.2091    2.1191 C.ar      1 <0>        -0.0864
     17 C15         3.5507    0.1514    2.9713 C.ar      1 <0>        -0.0268
     18 C16         3.5214    0.9239    4.1121 C.ar      1 <0>        -0.1392
     19 C17         4.5889    1.7592    4.4154 C.ar      1 <0>         0.1599
     20 C18         5.6904    1.8199    3.5716 C.ar      1 <0>        -0.2068
     21 C19         5.7314    1.0465    2.4317 C.ar      1 <0>        -0.0373
     22 O2          4.5552    2.5196    5.5408 O.3       1 <0>        -0.2987
     23 C20         5.6860    3.3562    5.7926 C.3       1 <0>         0.0383
     24 C21         5.4679    4.1306    7.0940 C.3       1 <0>         0.0960
     25 N2          6.6272    4.9883    7.3521 N.pl3     1 <0>        -0.4123
     26 C22         7.7502    4.6459    8.0557 C.2       1 <0>         0.0250
     27 C23         8.5579    5.7235    8.0489 C.2       1 <0>         0.0117
     28 N3          7.9447    6.6973    7.3600 N.pl3     1 <0>        -0.4719
     29 C24         6.7899    6.2624    6.9352 C.cat     1 <0>         0.2927
     30 N4          2.3484   -1.8194   -2.6518 N.pl3     1 <0>        -0.6797
     31 C25         1.8095   -2.3746   -3.8958 C.3       1 <0>         0.0970
     32 C26         0.3923   -1.8432   -4.1196 C.3       1 <0>         0.0404
     33 N5         -0.1480   -2.3999   -5.3671 N.3       1 <0>        -0.5348
     34 C27        -0.3386   -3.8530   -5.2564 C.3       1 <0>         0.0155
     35 C28        -0.8449   -4.4013   -6.5923 C.3       1 <0>        -0.0034
     36 N6         -2.1141   -3.7489   -6.9401 N.4       1 <0>        -0.5098
     37 C29        -1.9026   -2.3013   -7.0713 C.3       1 <0>        -0.0036
     38 C30        -1.4051   -1.7355   -5.7393 C.3       1 <0>         0.0255
     39 H1         -1.0796    1.6716    0.1796 H         1 <0>         0.1336
     40 H2          0.9545    3.0089   -0.1758 H         1 <0>         0.1344
     41 H3          3.1540    1.9113   -0.2625 H         1 <0>         0.1272
     42 H4          1.2621   -1.8866    0.3570 H         1 <0>         0.1254
     43 H5         -0.9278   -0.7698    0.4414 H         1 <0>         0.1327
     44 H6          4.0477   -3.4522   -3.9054 H         1 <0>         0.1865
     45 H7          6.3034   -4.0147   -3.1148 H         1 <0>         0.2244
     46 H8          2.7199   -0.4972    2.7359 H         1 <0>         0.1416
     47 H9          2.6670    0.8799    4.7712 H         1 <0>         0.1498
     48 H10         6.5182    2.4708    3.8115 H         1 <0>         0.1375
     49 H11         6.5903    1.0909    1.7785 H         1 <0>         0.1369
     50 H12         6.5809    2.7403    5.8819 H         1 <0>         0.0833
     51 H13         5.8091    4.0585    4.9681 H         1 <0>         0.0807
     52 H14         4.5730    4.7464    7.0047 H         1 <0>         0.1363
     53 H15         5.3448    3.4282    7.9184 H         1 <0>         0.1393
     54 H16         7.9501    3.6945    8.5262 H         1 <0>         0.2261
     55 H17         9.5291    5.7916    8.5163 H         1 <0>         0.2280
     56 H18         6.0807    6.8286    6.3496 H         1 <0>         0.2626
     57 H19         1.8107   -1.2137   -2.1181 H         1 <0>         0.4227
     58 H20         2.4446   -2.0787   -4.7308 H         1 <0>         0.1020
     59 H21         1.7831   -3.4621   -3.8269 H         1 <0>         0.0879
     60 H22        -0.2428   -2.1391   -3.2847 H         1 <0>         0.0608
     61 H23         0.4187   -0.7557   -4.1885 H         1 <0>         0.1012
     62 H24         0.6107   -4.3262   -5.0053 H         1 <0>         0.1229
     63 H25        -1.0690   -4.0656   -4.4757 H         1 <0>         0.0671
     64 H26        -0.1081   -4.2006   -7.3701 H         1 <0>         0.1424
     65 H27        -1.0004   -5.4769   -6.5081 H         1 <0>         0.1430
     66 H28        -2.4539   -4.1196   -7.8149 H         1 <0>         0.4403
     67 H29        -1.1604   -2.1113   -7.8466 H         1 <0>         0.1429
     68 H30        -2.8423   -1.8199   -7.3422 H         1 <0>         0.1446
     69 H31        -2.1530   -1.9132   -4.9666 H         1 <0>         0.0671
     70 H32        -1.2339   -0.6638   -5.8407 H         1 <0>         0.1275
     71 H33        -2.7925   -3.9251   -6.2144 H         1 <0>         0.4278
     72 H34         7.0654   -3.0858   -1.1341 H         1 <0>         0.4503
     73 H35         8.3045    7.5837    7.1995 H         1 <0>         0.4689
@<TRIPOS>BOND
     1    1    6 ar
     2    1    2 ar
     3    1   39 1
     4    2    3 ar
     5    2   40 1
     6    3    4 ar
     7    3   41 1
     8    4    5 ar
     9    4    7 1
    10    5    6 ar
    11    5   42 1
    12    6   43 1
    13    7   15 2
    14    7    8 1
    15    8   13 ar
    16    8    9 ar
    17    9   10 ar
    18    9   30 1
    19   10   11 ar
    20   10   44 1
    21   11   12 ar
    22   11   45 1
    23   12   13 ar
    24   12   72 1
    25   13   14 1
    26   14   15 1
    27   15   16 1
    28   16   21 ar
    29   16   17 ar
    30   17   18 ar
    31   17   46 1
    32   18   19 ar
    33   18   47 1
    34   19   20 ar
    35   19   22 1
    36   20   21 ar
    37   20   48 1
    38   21   49 1
    39   22   23 1
    40   23   24 1
    41   23   50 1
    42   23   51 1
    43   24   25 1
    44   24   52 1
    45   24   53 1
    46   25   29 1
    47   25   26 1
    48   26   27 2
    49   26   54 1
    50   27   28 1
    51   27   55 1
    52   28   29 2
    53   28   73 1
    54   29   56 1
    55   30   31 1
    56   30   57 1
    57   31   32 1
    58   31   58 1
    59   31   59 1
    60   32   33 1
    61   32   60 1
    62   32   61 1
    63   33   38 1
    64   33   34 1
    65   34   35 1
    66   34   62 1
    67   34   63 1
    68   35   36 1
    69   35   64 1
    70   35   65 1
    71   36   37 1
    72   36   66 1
    73   36   71 1
    74   37   38 1
    75   37   67 1
    76   37   68 1
    77   38   69 1
    78   38   70 1
@<TRIPOS>MOLECULE
CHEMBL240432__1
   72    77     0     0     0
SMALL
USER_CHARGES

@<TRIPOS>ATOM
      1 C1         -0.1164    1.1850    0.1378 C.ar      1 <0>        -0.0988
      2 C2          1.0277    1.9377   -0.0594 C.ar      1 <0>        -0.1081
      3 C3          2.2617    1.3227   -0.1082 C.ar      1 <0>        -0.0858
      4 C4          2.3545   -0.0614    0.0419 C.ar      1 <0>        -0.0492
      5 C5          1.1969   -0.8149    0.2405 C.ar      1 <0>        -0.1160
      6 C6         -0.0311   -0.1878    0.2873 C.ar      1 <0>        -0.1163
      7 C7          3.6750   -0.7277   -0.0098 C.2       1 <0>        -0.0895
      8 C8          4.1679   -1.6429   -1.0499 C.ar      1 <0>        -0.1808
      9 C9          3.6302   -2.1608   -2.2362 C.ar      1 <0>         0.3709
     10 C10         4.4210   -3.0287   -2.9848 C.ar      1 <0>        -0.2418
     11 C11         5.6899   -3.3416   -2.5342 C.ar      1 <0>         0.2199
     12 N1          6.1699   -2.8399   -1.4142 N.ar      1 <0>        -0.4727
     13 C12         5.4644   -2.0075   -0.6583 C.ar      1 <0>         0.2860
     14 O1          5.7325   -1.3771    0.5034 O.3       1 <0>        -0.1532
     15 C13         4.6930   -0.6155    0.8970 C.2       1 <0>         0.1413
     16 C14         4.6569    0.2091    2.1191 C.ar      1 <0>        -0.1045
     17 C15         3.5507    0.1514    2.9713 C.ar      1 <0>        -0.0272
     18 C16         3.5214    0.9239    4.1121 C.ar      1 <0>        -0.1476
     19 C17         4.5889    1.7592    4.4154 C.ar      1 <0>         0.1731
     20 C18         5.6904    1.8199    3.5716 C.ar      1 <0>        -0.2085
     21 C19         5.7314    1.0465    2.4317 C.ar      1 <0>        -0.0339
     22 O2          4.5552    2.5196    5.5408 O.3       1 <0>        -0.3016
     23 C20         5.6860    3.3562    5.7926 C.3       1 <0>         0.0418
     24 C21         5.4679    4.1306    7.0940 C.3       1 <0>         0.1094
     25 N2          6.6272    4.9883    7.3521 N.pl3     1 <0>        -0.4639
     26 C22         7.7500    4.6460    8.0561 C.2       1 <0>        -0.0585
     27 C23         8.5578    5.7236    8.0492 C.2       1 <0>        -0.0202
     28 N3          7.9448    6.6972    7.3597 N.2       1 <0>        -0.4873
     29 C24         6.7901    6.2623    6.9348 C.2       1 <0>         0.1841
     30 N4          2.3484   -1.8194   -2.6518 N.pl3     1 <0>        -0.6823
     31 C25         1.8095   -2.3746   -3.8958 C.3       1 <0>         0.0989
     32 C26         0.3923   -1.8432   -4.1196 C.3       1 <0>         0.0400
     33 N5         -0.1480   -2.3999   -5.3671 N.3       1 <0>        -0.5346
     34 C27        -0.3386   -3.8530   -5.2564 C.3       1 <0>         0.0152
     35 C28        -0.8449   -4.4013   -6.5923 C.3       1 <0>        -0.0031
     36 N6         -2.1141   -3.7489   -6.9401 N.4       1 <0>        -0.5097
     37 C29        -1.9026   -2.3013   -7.0713 C.3       1 <0>        -0.0033
     38 C30        -1.4051   -1.7355   -5.7393 C.3       1 <0>         0.0250
     39 H1         -1.0796    1.6716    0.1796 H         1 <0>         0.1323
     40 H2          0.9545    3.0089   -0.1758 H         1 <0>         0.1346
     41 H3          3.1540    1.9113   -0.2625 H         1 <0>         0.1284
     42 H4          1.2621   -1.8866    0.3570 H         1 <0>         0.1241
     43 H5         -0.9278   -0.7698    0.4414 H         1 <0>         0.1308
     44 H6          4.0477   -3.4522   -3.9054 H         1 <0>         0.1846
     45 H7          6.3034   -4.0147   -3.1148 H         1 <0>         0.2225
     46 H8          2.7199   -0.4972    2.7359 H         1 <0>         0.1375
     47 H9          2.6670    0.8799    4.7712 H         1 <0>         0.1476
     48 H10         6.5182    2.4708    3.8115 H         1 <0>         0.1417
     49 H11         6.5903    1.0909    1.7785 H         1 <0>         0.1348
     50 H12         6.5809    2.7403    5.8819 H         1 <0>         0.0767
     51 H13         5.8091    4.0585    4.9681 H         1 <0>         0.0770
     52 H14         4.5730    4.7464    7.0047 H         1 <0>         0.1096
     53 H15         5.3448    3.4282    7.9184 H         1 <0>         0.1074
     54 H16         7.9497    3.6948    8.5270 H         1 <0>         0.1771
     55 H17         9.5289    5.7918    8.5168 H         1 <0>         0.1741
     56 H18         6.0811    6.8283    6.3489 H         1 <0>         0.2066
     57 H19         1.8107   -1.2137   -2.1181 H         1 <0>         0.4231
     58 H20         2.4446   -2.0787   -4.7308 H         1 <0>         0.1005
     59 H21         1.7831   -3.4621   -3.8269 H         1 <0>         0.0861
     60 H22        -0.2428   -2.1391   -3.2847 H         1 <0>         0.0612
     61 H23         0.4187   -0.7557   -4.1885 H         1 <0>         0.1018
     62 H24         0.6107   -4.3262   -5.0053 H         1 <0>         0.1232
     63 H25        -1.0690   -4.0656   -4.4757 H         1 <0>         0.0669
     64 H26        -0.1081   -4.2006   -7.3701 H         1 <0>         0.1421
     65 H27        -1.0004   -5.4769   -6.5081 H         1 <0>         0.1423
     66 H28        -2.4539   -4.1196   -7.8149 H         1 <0>         0.4393
     67 H29        -1.1604   -2.1113   -7.8466 H         1 <0>         0.1427
     68 H30        -2.8423   -1.8199   -7.3422 H         1 <0>         0.1440
     69 H31        -2.1530   -1.9132   -4.9666 H         1 <0>         0.0671
     70 H32        -1.2339   -0.6638   -5.8407 H         1 <0>         0.1278
     71 H33        -2.7925   -3.9251   -6.2144 H         1 <0>         0.4277
     72 H34         7.0654   -3.0858   -1.1341 H         1 <0>         0.4498
@<TRIPOS>BOND
     1    1    6 ar
     2    1    2 ar
     3    1   39 1
     4    2    3 ar
     5    2   40 1
     6    3    4 ar
     7    3   41 1
     8    4    5 ar
     9    4    7 1
    10    5    6 ar
    11    5   42 1
    12    6   43 1
    13    7   15 2
    14    7    8 1
    15    8   13 ar
    16    8    9 ar
    17    9   10 ar
    18    9   30 1
    19   10   11 ar
    20   10   44 1
    21   11   12 ar
    22   11   45 1
    23   12   13 ar
    24   12   72 1
    25   13   14 1
    26   14   15 1
    27   15   16 1
    28   16   21 ar
    29   16   17 ar
    30   17   18 ar
    31   17   46 1
    32   18   19 ar
    33   18   47 1
    34   19   20 ar
    35   19   22 1
    36   20   21 ar
    37   20   48 1
    38   21   49 1
    39   22   23 1
    40   23   24 1
    41   23   50 1
    42   23   51 1
    43   24   25 1
    44   24   52 1
    45   24   53 1
    46   25   29 1
    47   25   26 1
    48   26   27 2
    49   26   54 1
    50   27   28 1
    51   27   55 1
    52   28   29 2
    53   29   56 1
    54   30   31 1
    55   30   57 1
    56   31   32 1
    57   31   58 1
    58   31   59 1
    59   32   33 1
    60   32   60 1
    61   32   61 1
    62   33   38 1
    63   33   34 1
    64   34   35 1
    65   34   62 1
    66   34   63 1
    67   35   36 1
    68   35   64 1
    69   35   65 1
    70   36   37 1
    71   36   66 1
    72   36   71 1
    73   37   38 1
    74   37   67 1
    75   37   68 1
    76   38   69 1
    77   38   70 1
@<TRIPOS>MOLECULE
CHEMBL239590
   86    90     0     0     0
SMALL
USER_CHARGES

@<TRIPOS>ATOM
      1 C1         -1.3427    0.3404   -4.3668 C.3       1 <0>        -0.1898
      2 C2         -1.0879    0.5412   -2.8716 C.3       1 <0>         0.0169
      3 C3         -2.3133    0.0814   -2.0792 C.3       1 <0>        -0.1798
      4 N1          0.0828   -0.2471   -2.4642 N.4       1 <0>        -0.3811
      5 C4          0.2641   -0.1390   -1.0104 C.3       1 <0>        -0.0194
      6 C5          0.6131    1.3055   -0.6460 C.3       1 <0>         0.0274
      7 O1         -0.5180    2.1444   -0.8883 O.3       1 <0>        -0.3122
      8 C6         -0.3462    3.4796   -0.7049 C.ar      1 <0>         0.1487
      9 C7          0.8903    3.9701   -0.3052 C.ar      1 <0>        -0.2018
     10 C8          1.0693    5.3235   -0.1180 C.ar      1 <0>        -0.0269
     11 C9          0.0044    6.2032   -0.3315 C.ar      1 <0>        -0.0814
     12 C10        -1.2378    5.7050   -0.7341 C.ar      1 <0>        -0.0381
     13 C11        -1.4060    4.3505   -0.9234 C.ar      1 <0>        -0.1408
     14 C12         0.1908    7.6525   -0.1320 C.2       1 <0>         0.1233
     15 C13         1.2308    8.3901   -0.6276 C.2       1 <0>        -0.0790
     16 C14         0.9916    9.7687   -0.1754 C.ar      1 <0>        -0.1860
     17 C15         1.6682   10.9856   -0.3369 C.ar      1 <0>         0.3720
     18 C16         1.1196   12.1191    0.2572 C.ar      1 <0>        -0.2397
     19 C17        -0.0564   12.0014    0.9742 C.ar      1 <0>         0.2245
     20 N2         -0.6714   10.8439    1.1097 N.ar      1 <0>        -0.4741
     21 C18        -0.1977    9.7290    0.5670 C.ar      1 <0>         0.2934
     22 O2         -0.6400    8.4550    0.5615 O.3       1 <0>        -0.1528
     23 N3          2.8494   11.0584   -1.0663 N.pl3     1 <0>        -0.6801
     24 C19         3.5373   12.3426   -1.2202 C.3       1 <0>         0.0968
     25 C20         4.8009   12.1468   -2.0603 C.3       1 <0>         0.0409
     26 N4          5.4907   13.4346   -2.2147 N.3       1 <0>        -0.5347
     27 C21         6.0059   13.9141   -0.9244 C.3       1 <0>         0.0157
     28 C22         6.6633   15.2823   -1.1177 C.3       1 <0>        -0.0035
     29 N5          7.7588   15.1665   -2.0893 N.4       1 <0>        -0.5098
     30 C23         7.2251   14.7103   -3.3795 C.3       1 <0>        -0.0036
     31 C24         6.5724   13.3373   -3.2049 C.3       1 <0>         0.0257
     32 C25         2.3618    7.9019   -1.4480 C.ar      1 <0>        -0.0516
     33 C26         3.6536    7.8846   -0.9207 C.ar      1 <0>        -0.1144
     34 C27         4.7036    7.4284   -1.6906 C.ar      1 <0>        -0.1151
     35 C28         4.4780    6.9891   -2.9830 C.ar      1 <0>        -0.0986
     36 C29         3.1994    7.0038   -3.5117 C.ar      1 <0>        -0.1103
     37 C30         2.1399    7.4517   -2.7500 C.ar      1 <0>        -0.0872
     38 C31        -0.1241   -1.6551   -2.8284 C.3       1 <0>         0.0148
     39 C32         0.3229   -1.8788   -4.2745 C.3       1 <0>        -0.2059
     40 C33         0.6970   -2.5489   -1.8968 C.3       1 <0>        -0.1881
     41 H1         -2.1265    1.0222   -4.6966 H         1 <0>         0.1022
     42 H2         -0.4270    0.5438   -4.9220 H         1 <0>         0.0808
     43 H3         -1.6561   -0.6879   -4.5471 H         1 <0>         0.0907
     44 H4         -0.9021    1.5968   -2.6732 H         1 <0>         0.1493
     45 H5         -2.4392   -0.9949   -2.1970 H         1 <0>         0.0783
     46 H6         -2.1733    0.3175   -1.0243 H         1 <0>         0.0853
     47 H7         -3.2002    0.5940   -2.4517 H         1 <0>         0.1038
     48 H8         -0.6583   -0.4280   -0.5067 H         1 <0>         0.1481
     49 H9          1.0724   -0.7987   -0.6950 H         1 <0>         0.1601
     50 H10         0.8858    1.3586    0.4080 H         1 <0>         0.1150
     51 H11         1.4519    1.6415   -1.2557 H         1 <0>         0.0883
     52 H12         1.7126    3.2896   -0.1405 H         1 <0>         0.1413
     53 H13         2.0309    5.7039    0.1935 H         1 <0>         0.1366
     54 H14        -2.0635    6.3810   -0.9002 H         1 <0>         0.1433
     55 H15        -2.3644    3.9650   -1.2384 H         1 <0>         0.1475
     56 H16         1.6069   13.0780    0.1594 H         1 <0>         0.1869
     57 H17        -0.4818   12.8805    1.4354 H         1 <0>         0.2251
     58 H18         3.2180   10.2588   -1.4734 H         1 <0>         0.4219
     59 H19         2.8760   13.0516   -1.7184 H         1 <0>         0.1024
     60 H20         3.8102   12.7286   -0.2381 H         1 <0>         0.0881
     61 H21         5.4622   11.4378   -1.5622 H         1 <0>         0.0601
     62 H22         4.5281   11.7608   -3.0425 H         1 <0>         0.1009
     63 H23         5.1834   14.0028   -0.2147 H         1 <0>         0.1229
     64 H24         6.7424   13.2076   -0.5416 H         1 <0>         0.0668
     65 H25         5.9232   15.9920   -1.4875 H         1 <0>         0.1427
     66 H26         7.0586   15.6334   -0.1645 H         1 <0>         0.1432
     67 H27         8.2000   16.0662   -2.2072 H         1 <0>         0.4405
     68 H28         6.4821   15.4229   -3.7377 H         1 <0>         0.1432
     69 H29         8.0370   14.6373   -4.1031 H         1 <0>         0.1446
     70 H30         7.3182   12.6213   -2.8597 H         1 <0>         0.0667
     71 H31         6.1632   13.0052   -4.1591 H         1 <0>         0.1274
     72 H32         3.8311    8.2279    0.0878 H         1 <0>         0.1255
     73 H33         5.7039    7.4145   -1.2837 H         1 <0>         0.1324
     74 H34         5.3034    6.6336   -3.5819 H         1 <0>         0.1329
     75 H35         3.0298    6.6595   -4.5212 H         1 <0>         0.1341
     76 H36         1.1417    7.4585   -3.1622 H         1 <0>         0.1283
     77 H37        -1.1810   -1.9038   -2.7322 H         1 <0>         0.1418
     78 H38         1.4016   -1.7398   -4.3470 H         1 <0>         0.0803
     79 H39         0.0657   -2.8925   -4.5816 H         1 <0>         0.1068
     80 H40        -0.1802   -1.1634   -4.9250 H         1 <0>         0.0998
     81 H41         0.3786   -2.3895   -0.8666 H         1 <0>         0.0836
     82 H42         0.5435   -3.5936   -2.1670 H         1 <0>         0.1079
     83 H43         1.7539   -2.3002   -1.9930 H         1 <0>         0.0813
     84 H44         8.4380   14.5009   -1.7522 H         1 <0>         0.4277
     85 H45         0.9045    0.1043   -2.9326 H         1 <0>         0.4182
     86 H46        -1.4945   10.8053    1.6215 H         1 <0>         0.4512
@<TRIPOS>BOND
     1    1    2 1
     2    1   41 1
     3    1   42 1
     4    1   43 1
     5    2    3 1
     6    2    4 1
     7    2   44 1
     8    3   45 1
     9    3   46 1
    10    3   47 1
    11    4    5 1
    12    4   38 1
    13    4   85 1
    14    5    6 1
    15    5   48 1
    16    5   49 1
    17    6    7 1
    18    6   50 1
    19    6   51 1
    20    7    8 1
    21    8   13 ar
    22    8    9 ar
    23    9   10 ar
    24    9   52 1
    25   10   11 ar
    26   10   53 1
    27   11   12 ar
    28   11   14 1
    29   12   13 ar
    30   12   54 1
    31   13   55 1
    32   14   22 1
    33   14   15 2
    34   15   16 1
    35   15   32 1
    36   16   21 ar
    37   16   17 ar
    38   17   18 ar
    39   17   23 1
    40   18   19 ar
    41   18   56 1
    42   19   20 ar
    43   19   57 1
    44   20   21 ar
    45   20   86 1
    46   21   22 1
    47   23   24 1
    48   23   58 1
    49   24   25 1
    50   24   59 1
    51   24   60 1
    52   25   26 1
    53   25   61 1
    54   25   62 1
    55   26   31 1
    56   26   27 1
    57   27   28 1
    58   27   63 1
    59   27   64 1
    60   28   29 1
    61   28   65 1
    62   28   66 1
    63   29   30 1
    64   29   67 1
    65   29   84 1
    66   30   31 1
    67   30   68 1
    68   30   69 1
    69   31   70 1
    70   31   71 1
    71   32   37 ar
    72   32   33 ar
    73   33   34 ar
    74   33   72 1
    75   34   35 ar
    76   34   73 1
    77   35   36 ar
    78   35   74 1
    79   36   37 ar
    80   36   75 1
    81   37   76 1
    82   38   39 1
    83   38   40 1
    84   38   77 1
    85   39   78 1
    86   39   79 1
    87   39   80 1
    88   40   81 1
    89   40   82 1
    90   40   83 1
@<TRIPOS>MOLECULE
CHEMBL240430
   78    83     0     0     0
SMALL
USER_CHARGES

@<TRIPOS>ATOM
      1 C1         -1.3943    1.4535    1.2568 C.ar      1 <0>        -0.0994
      2 C2         -0.2649    2.1368    0.8421 C.ar      1 <0>        -0.1084
      3 C3          0.9066    1.4519    0.5928 C.ar      1 <0>        -0.0856
      4 C4          0.9508    0.0673    0.7598 C.ar      1 <0>        -0.0474
      5 C5         -0.1917   -0.6159    1.1782 C.ar      1 <0>        -0.1159
      6 C6         -1.3569    0.0806    1.4242 C.ar      1 <0>        -0.1165
      7 C7          2.2040   -0.6737    0.4936 C.2       1 <0>        -0.0940
      8 C8          2.4586   -1.6248   -0.5985 C.ar      1 <0>        -0.1794
      9 C9          1.6960   -2.1220   -1.6644 C.ar      1 <0>         0.3702
     10 C10         2.2966   -3.0402   -2.5217 C.ar      1 <0>        -0.2421
     11 C11         3.6053   -3.4209   -2.2909 C.ar      1 <0>         0.2188
     12 N1          4.2988   -2.9373   -1.2801 N.ar      1 <0>        -0.4724
     13 C12         3.7814   -2.0593   -0.4296 C.ar      1 <0>         0.2838
     14 O1          4.2807   -1.4347    0.6565 O.3       1 <0>        -0.1536
     15 C13         3.3683   -0.6116    1.2090 C.2       1 <0>         0.1463
     16 C14         3.5896    0.2249    2.4034 C.ar      1 <0>        -0.1130
     17 C15         2.6406    0.2470    3.4292 C.ar      1 <0>        -0.0262
     18 C16         2.8517    1.0301    4.5433 C.ar      1 <0>        -0.1517
     19 C17         4.0051    1.7969    4.6475 C.ar      1 <0>         0.1783
     20 C18         4.9509    1.7782    3.6306 C.ar      1 <0>        -0.2147
     21 C19         4.7515    0.9934    2.5155 C.ar      1 <0>        -0.0334
     22 O2          4.2084    2.5682    5.7474 O.3       1 <0>        -0.2861
     23 C20         5.4156    3.3318    5.7901 C.3       1 <0>         0.0623
     24 C21         5.4679    4.1306    7.0940 C.3       1 <0>         0.0514
     25 N2          5.5409    3.2052    8.2325 N.3       1 <0>        -0.5325
     26 C22         5.1352    3.8706    9.4791 C.3       1 <0>         0.0177
     27 C23         5.1686    2.8573   10.6263 C.3       1 <0>         0.0627
     28 O3          6.4783    2.2902   10.7168 O.3       1 <0>        -0.3821
     29 C24         6.9053    1.6335    9.5202 C.3       1 <0>         0.0638
     30 C25         6.8895    2.6344    8.3618 C.3       1 <0>         0.0129
     31 N3          0.3821   -1.7118   -1.8590 N.pl3     1 <0>        -0.6827
     32 C26        -0.3936   -2.2465   -2.9809 C.3       1 <0>         0.0992
     33 C27        -1.7969   -1.6372   -2.9669 C.3       1 <0>         0.0400
     34 N4         -2.5748   -2.1734   -4.0918 N.3       1 <0>        -0.5347
     35 C28        -2.8224   -3.6122   -3.9226 C.3       1 <0>         0.0152
     36 C29        -3.5816   -4.1428   -5.1407 C.3       1 <0>        -0.0031
     37 N5         -4.8543   -3.4222   -5.2767 N.4       1 <0>        -0.5097
     38 C30        -4.5900   -1.9902   -5.4695 C.3       1 <0>        -0.0032
     39 C31        -3.8391   -1.4417   -4.2542 C.3       1 <0>         0.0250
     40 H1         -2.3076    1.9947    1.4550 H         1 <0>         0.1319
     41 H2         -0.3005    3.2084    0.7130 H         1 <0>         0.1341
     42 H3          1.7874    1.9864    0.2689 H         1 <0>         0.1282
     43 H4         -0.1639   -1.6876    1.3089 H         1 <0>         0.1238
     44 H5         -2.2418   -0.4470    1.7485 H         1 <0>         0.1305
     45 H6          1.7468   -3.4500   -3.3561 H         1 <0>         0.1842
     46 H7          4.0712   -4.1332   -2.9558 H         1 <0>         0.2220
     47 H8          1.7432   -0.3484    3.3488 H         1 <0>         0.1347
     48 H9          2.1190    1.0478    5.3365 H         1 <0>         0.1453
     49 H10         5.8463    2.3761    3.7159 H         1 <0>         0.1404
     50 H11         5.4896    0.9759    1.7273 H         1 <0>         0.1322
     51 H12         6.2724    2.6599    5.7410 H         1 <0>         0.0686
     52 H13         5.4422    4.0171    4.9429 H         1 <0>         0.0732
     53 H14         6.3481    4.7734    7.0912 H         1 <0>         0.0672
     54 H15         4.5707    4.7434    7.1809 H         1 <0>         0.0909
     55 H16         5.8226    4.6883    9.6956 H         1 <0>         0.0470
     56 H17         4.1243    4.2633    9.3697 H         1 <0>         0.0895
     57 H18         4.9238    3.3592   11.5624 H         1 <0>         0.1022
     58 H19         4.4423    2.0673   10.4354 H         1 <0>         0.0607
     59 H20         7.9166    1.2503    9.6563 H         1 <0>         0.1001
     60 H21         6.2295    0.8079    9.2971 H         1 <0>         0.0593
     61 H22         7.1593    2.1248    7.4368 H         1 <0>         0.0825
     62 H23         7.6050    3.4323    8.5605 H         1 <0>         0.0477
     63 H24        -0.0210   -1.0715   -1.2521 H         1 <0>         0.4231
     64 H25         0.1025   -1.9949   -3.9183 H         1 <0>         0.1001
     65 H26        -0.4670   -3.3301   -2.8881 H         1 <0>         0.0858
     66 H27        -2.2930   -1.8888   -2.0295 H         1 <0>         0.0612
     67 H28        -1.7235   -0.5536   -3.0597 H         1 <0>         0.1018
     68 H29        -1.8712   -4.1365   -3.8302 H         1 <0>         0.1233
     69 H30        -3.4170   -3.7757   -3.0239 H         1 <0>         0.0669
     70 H31        -2.9808   -3.9915   -6.0375 H         1 <0>         0.1420
     71 H32        -3.7787   -5.2069   -5.0108 H         1 <0>         0.1422
     72 H33        -5.3602   -3.7807   -6.0726 H         1 <0>         0.4392
     73 H34        -3.9840   -1.8499   -6.3646 H         1 <0>         0.1426
     74 H35        -5.5346   -1.4585   -5.5833 H         1 <0>         0.1439
     75 H36        -4.4505   -1.5695   -3.3609 H         1 <0>         0.0670
     76 H37        -3.6297   -0.3825   -4.4036 H         1 <0>         0.1277
     77 H38        -5.4054   -3.5528   -4.4416 H         1 <0>         0.4278
     78 H39         5.2145   -3.2314   -1.1540 H         1 <0>         0.4495
@<TRIPOS>BOND
     1    1    6 ar
     2    1    2 ar
     3    1   40 1
     4    2    3 ar
     5    2   41 1
     6    3    4 ar
     7    3   42 1
     8    4    5 ar
     9    4    7 1
    10    5    6 ar
    11    5   43 1
    12    6   44 1
    13    7   15 2
    14    7    8 1
    15    8   13 ar
    16    8    9 ar
    17    9   10 ar
    18    9   31 1
    19   10   11 ar
    20   10   45 1
    21   11   12 ar
    22   11   46 1
    23   12   13 ar
    24   12   78 1
    25   13   14 1
    26   14   15 1
    27   15   16 1
    28   16   21 ar
    29   16   17 ar
    30   17   18 ar
    31   17   47 1
    32   18   19 ar
    33   18   48 1
    34   19   20 ar
    35   19   22 1
    36   20   21 ar
    37   20   49 1
    38   21   50 1
    39   22   23 1
    40   23   24 1
    41   23   51 1
    42   23   52 1
    43   24   25 1
    44   24   53 1
    45   24   54 1
    46   25   30 1
    47   25   26 1
    48   26   27 1
    49   26   55 1
    50   26   56 1
    51   27   28 1
    52   27   57 1
    53   27   58 1
    54   28   29 1
    55   29   30 1
    56   29   59 1
    57   29   60 1
    58   30   61 1
    59   30   62 1
    60   31   32 1
    61   31   63 1
    62   32   33 1
    63   32   64 1
    64   32   65 1
    65   33   34 1
    66   33   66 1
    67   33   67 1
    68   34   39 1
    69   34   35 1
    70   35   36 1
    71   35   68 1
    72   35   69 1
    73   36   37 1
    74   36   70 1
    75   36   71 1
    76   37   38 1
    77   37   72 1
    78   37   77 1
    79   38   39 1
    80   38   73 1
    81   38   74 1
    82   39   75 1
    83   39   76 1
@<TRIPOS>MOLECULE
CHEMBL240430__1
   79    84     0     0     0
SMALL
USER_CHARGES

@<TRIPOS>ATOM
      1 C1         -0.8800    1.0544    0.8873 C.ar      1 <0>        -0.0966
      2 C2          0.2281    1.8111    0.5499 C.ar      1 <0>        -0.1085
      3 C3          1.4522    1.2025    0.3640 C.ar      1 <0>        -0.0871
      4 C4          1.5713   -0.1793    0.5171 C.ar      1 <0>        -0.0555
      5 C5          0.4500   -0.9368    0.8575 C.ar      1 <0>        -0.1151
      6 C6         -0.7685   -0.3162    1.0406 C.ar      1 <0>        -0.1146
      7 C7          2.8814   -0.8388    0.3188 C.2       1 <0>        -0.0742
      8 C8          3.2546   -1.7663   -0.7594 C.ar      1 <0>        -0.1863
      9 C9          2.5842   -2.3048   -1.8664 C.ar      1 <0>         0.3725
     10 C10         3.2873   -3.1790   -2.6912 C.ar      1 <0>        -0.2396
     11 C11         4.6028   -3.4781   -2.3896 C.ar      1 <0>         0.2240
     12 N1          5.2082   -2.9572   -1.3414 N.ar      1 <0>        -0.4748
     13 C12         4.5909   -2.1178   -0.5190 C.ar      1 <0>         0.2929
     14 O1          4.9898   -1.4689    0.5939 O.3       1 <0>        -0.1539
     15 C13         3.9986   -0.7075    1.0971 C.2       1 <0>         0.1194
     16 C14         4.1012    0.1348    2.3033 C.ar      1 <0>        -0.0788
     17 C15         3.1016    0.0869    3.2789 C.ar      1 <0>        -0.0285
     18 C16         3.2017    0.8758    4.4043 C.ar      1 <0>        -0.1393
     19 C17         4.2937    1.7181    4.5696 C.ar      1 <0>         0.1522
     20 C18         5.2896    1.7692    3.6028 C.ar      1 <0>        -0.2031
     21 C19         5.2012    0.9793    2.4771 C.ar      1 <0>        -0.0370
     22 O2          4.3878    2.4948    5.6804 O.3       1 <0>        -0.3220
     23 C20         5.5367    3.3378    5.7872 C.3       1 <0>         0.0227
     24 C21         5.4679    4.1306    7.0940 C.3       1 <0>        -0.0012
     25 N2          5.5409    3.2052    8.2325 N.4       1 <0>        -0.3875
     26 C22         5.3325    3.9489    9.4826 C.3       1 <0>        -0.0444
     27 C23         5.4089    2.9826   10.6672 C.3       1 <0>         0.0351
     28 O3          6.6768    2.3207   10.6549 O.3       1 <0>        -0.3527
     29 C24         6.9367    1.6011    9.4464 C.3       1 <0>         0.0371
     30 C25         6.8632    2.5649    8.2595 C.3       1 <0>        -0.0506
     31 N3          1.2597   -1.9768   -2.1321 N.pl3     1 <0>        -0.6791
     32 C26         0.5816   -2.5533   -3.2958 C.3       1 <0>         0.0966
     33 C27        -0.8560   -2.0333   -3.3577 C.3       1 <0>         0.0405
     34 N4         -1.5359   -2.6113   -4.5246 N.3       1 <0>        -0.5347
     35 C28        -1.7013   -4.0637   -4.3718 C.3       1 <0>         0.0156
     36 C29        -2.3580   -4.6345   -5.6307 C.3       1 <0>        -0.0034
     37 N5         -3.6642   -3.9944   -5.8349 N.4       1 <0>        -0.5098
     38 C30        -3.4804   -2.5477   -6.0104 C.3       1 <0>        -0.0036
     39 C31        -2.8330   -1.9596   -4.7547 C.3       1 <0>         0.0255
     40 H1         -1.8351    1.5361    1.0360 H         1 <0>         0.1340
     41 H2          0.1345    2.8805    0.4313 H         1 <0>         0.1352
     42 H3          2.3163    1.7942    0.1003 H         1 <0>         0.1278
     43 H4          0.5357   -2.0068    0.9771 H         1 <0>         0.1253
     44 H5         -1.6370   -0.9013    1.3044 H         1 <0>         0.1328
     45 H6          2.8108   -3.6182   -3.5552 H         1 <0>         0.1870
     46 H7          5.1483   -4.1562   -3.0292 H         1 <0>         0.2250
     47 H8          2.2518   -0.5672    3.1508 H         1 <0>         0.1420
     48 H9          2.4298    0.8394    5.1587 H         1 <0>         0.1474
     49 H10         6.1369    2.4256    3.7357 H         1 <0>         0.1417
     50 H11         5.9783    1.0163    1.7280 H         1 <0>         0.1395
     51 H12         6.4384    2.7255    5.7807 H         1 <0>         0.0913
     52 H13         5.5603    4.0283    4.9441 H         1 <0>         0.1157
     53 H14         6.3032    4.8293    7.1395 H         1 <0>         0.1553
     54 H15         4.5293    4.6833    7.1346 H         1 <0>         0.1471
     55 H16         6.1046    4.7115    9.5850 H         1 <0>         0.1428
     56 H17         4.3518    4.4242    9.4637 H         1 <0>         0.1455
     57 H18         5.2975    3.5385   11.5982 H         1 <0>         0.1462
     58 H19         4.6117    2.2436   10.5861 H         1 <0>         0.0819
     59 H20         7.9311    1.1572    9.4938 H         1 <0>         0.1435
     60 H21         6.1919    0.8149    9.3235 H         1 <0>         0.0805
     61 H22         7.0188    2.0128    7.3326 H         1 <0>         0.1370
     62 H23         7.6347    3.3280    8.3624 H         1 <0>         0.1437
     63 H24         0.7845   -1.3663   -1.5471 H         1 <0>         0.4226
     64 H25         1.1113   -2.2661   -4.2041 H         1 <0>         0.1025
     65 H26         0.5716   -3.6398   -3.2091 H         1 <0>         0.0882
     66 H27        -1.3857   -2.3204   -2.4494 H         1 <0>         0.0605
     67 H28        -0.8459   -0.9468   -3.4444 H         1 <0>         0.1013
     68 H29        -0.7255   -4.5277   -4.2283 H         1 <0>         0.1228
     69 H30        -2.3327   -4.2689   -3.5073 H         1 <0>         0.0669
     70 H31        -1.7198   -4.4411   -6.4929 H         1 <0>         0.1426
     71 H32        -2.4946   -5.7095   -5.5136 H         1 <0>         0.1430
     72 H33        -4.1023   -4.3798   -6.6581 H         1 <0>         0.4404
     73 H34        -2.8364   -2.3650   -6.8707 H         1 <0>         0.1431
     74 H35        -4.4490   -2.0757   -6.1749 H         1 <0>         0.1447
     75 H36        -3.4830   -2.1301   -3.8965 H         1 <0>         0.0670
     76 H37        -2.6829   -0.8885   -4.8905 H         1 <0>         0.1276
     77 H38        -4.2508   -4.1637   -5.0316 H         1 <0>         0.4278
     78 H39         6.1323   -3.1940   -1.1658 H         1 <0>         0.4506
     79 H40         4.8268    2.4986    8.1382 H         1 <0>         0.4280
@<TRIPOS>BOND
     1    1    6 ar
     2    1    2 ar
     3    1   40 1
     4    2    3 ar
     5    2   41 1
     6    3    4 ar
     7    3   42 1
     8    4    5 ar
     9    4    7 1
    10    5    6 ar
    11    5   43 1
    12    6   44 1
    13    7   15 2
    14    7    8 1
    15    8   13 ar
    16    8    9 ar
    17    9   10 ar
    18    9   31 1
    19   10   11 ar
    20   10   45 1
    21   11   12 ar
    22   11   46 1
    23   12   13 ar
    24   12   78 1
    25   13   14 1
    26   14   15 1
    27   15   16 1
    28   16   21 ar
    29   16   17 ar
    30   17   18 ar
    31   17   47 1
    32   18   19 ar
    33   18   48 1
    34   19   20 ar
    35   19   22 1
    36   20   21 ar
    37   20   49 1
    38   21   50 1
    39   22   23 1
    40   23   24 1
    41   23   51 1
    42   23   52 1
    43   24   25 1
    44   24   53 1
    45   24   54 1
    46   25   30 1
    47   25   26 1
    48   25   79 1
    49   26   27 1
    50   26   55 1
    51   26   56 1
    52   27   28 1
    53   27   57 1
    54   27   58 1
    55   28   29 1
    56   29   30 1
    57   29   59 1
    58   29   60 1
    59   30   61 1
    60   30   62 1
    61   31   32 1
    62   31   63 1
    63   32   33 1
    64   32   64 1
    65   32   65 1
    66   33   34 1
    67   33   66 1
    68   33   67 1
    69   34   39 1
    70   34   35 1
    71   35   36 1
    72   35   68 1
    73   35   69 1
    74   36   37 1
    75   36   70 1
    76   36   71 1
    77   37   38 1
    78   37   72 1
    79   37   77 1
    80   38   39 1
    81   38   73 1
    82   38   74 1
    83   39   75 1
    84   39   76 1
@<TRIPOS>MOLECULE
CHEMBL240431
   78    83     0     0     0
SMALL
USER_CHARGES

@<TRIPOS>ATOM
      1 C1         -0.1164    1.1850    0.1378 C.ar      1 <0>        -0.0967
      2 C2          1.0277    1.9377   -0.0594 C.ar      1 <0>        -0.1085
      3 C3          2.2617    1.3227   -0.1082 C.ar      1 <0>        -0.0871
      4 C4          2.3545   -0.0614    0.0419 C.ar      1 <0>        -0.0552
      5 C5          1.1969   -0.8149    0.2405 C.ar      1 <0>        -0.1150
      6 C6         -0.0311   -0.1878    0.2873 C.ar      1 <0>        -0.1148
      7 C7          3.6750   -0.7277   -0.0098 C.2       1 <0>        -0.0749
      8 C8          4.1679   -1.6429   -1.0499 C.ar      1 <0>        -0.1860
      9 C9          3.6302   -2.1608   -2.2362 C.ar      1 <0>         0.3724
     10 C10         4.4210   -3.0287   -2.9848 C.ar      1 <0>        -0.2397
     11 C11         5.6899   -3.3416   -2.5342 C.ar      1 <0>         0.2238
     12 N1          6.1699   -2.8399   -1.4142 N.ar      1 <0>        -0.4747
     13 C12         5.4644   -2.0075   -0.6583 C.ar      1 <0>         0.2925
     14 O1          5.7325   -1.3771    0.5034 O.3       1 <0>        -0.1539
     15 C13         4.6930   -0.6155    0.8970 C.2       1 <0>         0.1204
     16 C14         4.6569    0.2091    2.1191 C.ar      1 <0>        -0.0802
     17 C15         3.5507    0.1514    2.9713 C.ar      1 <0>        -0.0285
     18 C16         3.5214    0.9239    4.1121 C.ar      1 <0>        -0.1399
     19 C17         4.5889    1.7592    4.4154 C.ar      1 <0>         0.1536
     20 C18         5.6904    1.8199    3.5716 C.ar      1 <0>        -0.2033
     21 C19         5.7314    1.0465    2.4317 C.ar      1 <0>        -0.0370
     22 O2          4.5552    2.5196    5.5408 O.3       1 <0>        -0.3211
     23 C20         5.6860    3.3562    5.7926 C.3       1 <0>         0.0243
     24 C21         5.4679    4.1306    7.0940 C.3       1 <0>         0.0027
     25 N2          5.4216    3.1901    8.2215 N.4       1 <0>        -0.3966
     26 C22         6.7614    2.5880    8.4416 C.3       1 <0>        -0.0110
     27 C23         6.6984    2.1118    9.9147 C.3       1 <0>        -0.1448
     28 C24         5.8835    3.2296   10.6048 C.3       1 <0>        -0.1461
     29 C25         5.0920    3.9085    9.4716 C.3       1 <0>        -0.0089
     30 N3          2.3484   -1.8194   -2.6518 N.pl3     1 <0>        -0.6792
     31 C26         1.8095   -2.3746   -3.8958 C.3       1 <0>         0.0967
     32 C27         0.3923   -1.8432   -4.1196 C.3       1 <0>         0.0405
     33 N4         -0.1480   -2.3999   -5.3671 N.3       1 <0>        -0.5347
     34 C28        -0.3386   -3.8530   -5.2564 C.3       1 <0>         0.0156
     35 C29        -0.8449   -4.4013   -6.5923 C.3       1 <0>        -0.0035
     36 N5         -2.1141   -3.7489   -6.9401 N.4       1 <0>        -0.5098
     37 C30        -1.9026   -2.3013   -7.0713 C.3       1 <0>        -0.0036
     38 C31        -1.4051   -1.7355   -5.7393 C.3       1 <0>         0.0255
     39 H1         -1.0796    1.6716    0.1796 H         1 <0>         0.1339
     40 H2          0.9545    3.0089   -0.1758 H         1 <0>         0.1351
     41 H3          3.1540    1.9113   -0.2625 H         1 <0>         0.1278
     42 H4          1.2621   -1.8866    0.3570 H         1 <0>         0.1253
     43 H5         -0.9278   -0.7698    0.4414 H         1 <0>         0.1327
     44 H6          4.0477   -3.4522   -3.9054 H         1 <0>         0.1869
     45 H7          6.3034   -4.0147   -3.1148 H         1 <0>         0.2249
     46 H8          2.7199   -0.4972    2.7359 H         1 <0>         0.1417
     47 H9          2.6670    0.8799    4.7712 H         1 <0>         0.1474
     48 H10         6.5182    2.4708    3.8115 H         1 <0>         0.1417
     49 H11         6.5903    1.0909    1.7785 H         1 <0>         0.1391
     50 H12         6.5809    2.7403    5.8819 H         1 <0>         0.0903
     51 H13         5.8091    4.0585    4.9681 H         1 <0>         0.1129
     52 H14         6.2881    4.8333    7.2405 H         1 <0>         0.1532
     53 H15         4.5266    4.6773    7.0380 H         1 <0>         0.1436
     54 H16         6.9186    1.7435    7.7707 H         1 <0>         0.1310
     55 H17         7.5448    3.3348    8.3119 H         1 <0>         0.1365
     56 H18         6.1811    1.1553    9.9890 H         1 <0>         0.0982
     57 H19         7.6992    2.0445   10.3414 H         1 <0>         0.1194
     58 H20         5.2011    2.8019   11.3393 H         1 <0>         0.1076
     59 H21         6.5524    3.9465   11.0811 H         1 <0>         0.1070
     60 H22         5.3869    4.9545    9.3876 H         1 <0>         0.1334
     61 H23         4.0227    3.8362    9.6706 H         1 <0>         0.1343
     62 H24         1.8107   -1.2137   -2.1181 H         1 <0>         0.4226
     63 H25         2.4446   -2.0787   -4.7308 H         1 <0>         0.1024
     64 H26         1.7831   -3.4621   -3.8269 H         1 <0>         0.0881
     65 H27        -0.2428   -2.1391   -3.2847 H         1 <0>         0.0605
     66 H28         0.4187   -0.7557   -4.1885 H         1 <0>         0.1013
     67 H29         0.6107   -4.3262   -5.0053 H         1 <0>         0.1228
     68 H30        -1.0690   -4.0656   -4.4757 H         1 <0>         0.0669
     69 H31        -0.1081   -4.2006   -7.3701 H         1 <0>         0.1426
     70 H32        -1.0004   -5.4769   -6.5081 H         1 <0>         0.1430
     71 H33        -2.4539   -4.1196   -7.8149 H         1 <0>         0.4404
     72 H34        -1.1604   -2.1113   -7.8466 H         1 <0>         0.1431
     73 H35        -2.8423   -1.8199   -7.3422 H         1 <0>         0.1447
     74 H36        -2.1530   -1.9132   -4.9666 H         1 <0>         0.0670
     75 H37        -1.2339   -0.6638   -5.8407 H         1 <0>         0.1276
     76 H38        -2.7925   -3.9251   -6.2144 H         1 <0>         0.4278
     77 H39         4.7393    2.4680    8.0450 H         1 <0>         0.4315
     78 H40         7.0654   -3.0858   -1.1341 H         1 <0>         0.4505
@<TRIPOS>BOND
     1    1    6 ar
     2    1    2 ar
     3    1   39 1
     4    2    3 ar
     5    2   40 1
     6    3    4 ar
     7    3   41 1
     8    4    5 ar
     9    4    7 1
    10    5    6 ar
    11    5   42 1
    12    6   43 1
    13    7   15 2
    14    7    8 1
    15    8   13 ar
    16    8    9 ar
    17    9   10 ar
    18    9   30 1
    19   10   11 ar
    20   10   44 1
    21   11   12 ar
    22   11   45 1
    23   12   13 ar
    24   12   78 1
    25   13   14 1
    26   14   15 1
    27   15   16 1
    28   16   21 ar
    29   16   17 ar
    30   17   18 ar
    31   17   46 1
    32   18   19 ar
    33   18   47 1
    34   19   20 ar
    35   19   22 1
    36   20   21 ar
    37   20   48 1
    38   21   49 1
    39   22   23 1
    40   23   24 1
    41   23   50 1
    42   23   51 1
    43   24   25 1
    44   24   52 1
    45   24   53 1
    46   25   29 1
    47   25   26 1
    48   25   77 1
    49   26   27 1
    50   26   54 1
    51   26   55 1
    52   27   28 1
    53   27   56 1
    54   27   57 1
    55   28   29 1
    56   28   58 1
    57   28   59 1
    58   29   60 1
    59   29   61 1
    60   30   31 1
    61   30   62 1
    62   31   32 1
    63   31   63 1
    64   31   64 1
    65   32   33 1
    66   32   65 1
    67   32   66 1
    68   33   38 1
    69   33   34 1
    70   34   35 1
    71   34   67 1
    72   34   68 1
    73   35   36 1
    74   35   69 1
    75   35   70 1
    76   36   37 1
    77   36   71 1
    78   36   76 1
    79   37   38 1
    80   37   72 1
    81   37   73 1
    82   38   74 1
    83   38   75 1
@<TRIPOS>MOLECULE
CHEMBL66990
   50    53     0     0     0
SMALL
USER_CHARGES

@<TRIPOS>ATOM
      1 C1         -2.3215    0.0989    0.8112 C.3       1 <0>        -0.1147
      2 C2         -1.1015   -0.6767    0.3857 C.ar      1 <0>        -0.0626
      3 C3         -1.0985   -1.3553   -0.8177 C.ar      1 <0>        -0.1117
      4 C4          0.0202   -2.0668   -1.2095 C.ar      1 <0>        -0.0949
      5 C5          1.1403   -2.1021   -0.3989 C.ar      1 <0>        -0.1132
      6 C6          1.1442   -1.4256    0.8060 C.ar      1 <0>        -0.0212
      7 C7          0.0226   -0.7051    1.2000 C.ar      1 <0>         0.1391
      8 N1          0.0246   -0.0145    2.4167 N.am      1 <0>        -0.6794
      9 C8         -0.3554   -0.6412    3.5478 C.2       1 <0>         0.5732
     10 O1         -0.6123   -1.8297    3.5276 O.2       1 <0>        -0.5130
     11 C9         -0.4597    0.1144    4.8099 C.ar      1 <0>        -0.1310
     12 C10        -0.1717    1.4861    4.8439 C.ar      1 <0>        -0.0702
     13 C11        -0.2611    2.1998    5.9929 C.ar      1 <0>        -0.0735
     14 C12        -0.6513    1.5834    7.2081 C.ar      1 <0>         0.1423
     15 C13        -0.9374    0.1974    7.1480 C.ar      1 <0>        -0.1700
     16 C14        -0.8532   -0.5255    5.9900 C.ar      1 <0>         0.0143
     17 S1         -1.3727   -0.1723    8.8306 S.3       1 <0>         0.0291
     18 C15        -1.1555    1.4767    9.4851 C.2       1 <0>         0.4029
     19 N2         -0.7847    2.1538    8.4212 N.2       1 <0>        -0.5134
     20 N3         -1.3333    1.9262   10.7813 N.am      1 <0>        -0.6242
     21 C16        -1.1170    3.2223   11.0807 C.2       1 <0>         0.6976
     22 O2         -0.7657    3.9965   10.2117 O.2       1 <0>        -0.5190
     23 N4         -1.2902    3.6602   12.3435 N.am      1 <0>        -0.7286
     24 C17        -1.0551    5.0691   12.6690 C.3       1 <0>         0.1573
     25 C18         0.4292    5.2880   13.0279 C.3       1 <0>        -0.1368
     26 C19         0.3937    6.3358   14.1681 C.3       1 <0>        -0.1255
     27 C20        -0.8542    5.9127   14.9823 C.3       1 <0>        -0.1250
     28 C21        -1.8711    5.4663   13.9116 C.3       1 <0>        -0.1317
     29 Cl1         2.5501   -1.4706    1.8235 Cl        1 <0>        -0.0571
     30 H1         -2.2505    1.1209    0.4389 H         1 <0>         0.0772
     31 H2         -3.2141   -0.3753    0.4031 H         1 <0>         0.0736
     32 H3         -2.3824    0.1121    1.8994 H         1 <0>         0.0676
     33 H4         -1.9715   -1.3302   -1.4530 H         1 <0>         0.1346
     34 H5          0.0194   -2.5966   -2.1506 H         1 <0>         0.1367
     35 H6          2.0125   -2.6591   -0.7078 H         1 <0>         0.1380
     36 H7          0.2995    0.9152    2.4462 H         1 <0>         0.4105
     37 H8          0.1285    1.9853    3.9344 H         1 <0>         0.1362
     38 H9         -0.0310    3.2549    5.9823 H         1 <0>         0.1422
     39 H10        -1.0844   -1.5804    5.9875 H         1 <0>         0.1481
     40 H11        -1.6136    1.3085   11.4747 H         1 <0>         0.4267
     41 H12        -1.5705    3.0425   13.0369 H         1 <0>         0.3989
     42 H13        -1.3323    5.6987   11.8234 H         1 <0>         0.0963
     43 H14         0.8781    4.3585   13.3779 H         1 <0>         0.0704
     44 H15         0.9760    5.6773   12.1691 H         1 <0>         0.0735
     45 H16         1.2938    6.2719   14.7796 H         1 <0>         0.0704
     46 H17         0.2695    7.3410   13.7653 H         1 <0>         0.0712
     47 H18        -0.6125    5.0841   15.6479 H         1 <0>         0.0677
     48 H19        -1.2440    6.7578   15.5498 H         1 <0>         0.0704
     49 H20        -2.5436    6.2892   13.6693 H         1 <0>         0.0786
     50 H21        -2.4420    4.6108   14.2725 H         1 <0>         0.0723
@<TRIPOS>BOND
     1    1    2 1
     2    1   30 1
     3    1   31 1
     4    1   32 1
     5    2    7 ar
     6    2    3 ar
     7    3    4 ar
     8    3   33 1
     9    4    5 ar
    10    4   34 1
    11    5    6 ar
    12    5   35 1
    13    6    7 ar
    14    6   29 1
    15    7    8 1
    16    8    9 am
    17    8   36 1
    18    9   10 2
    19    9   11 1
    20   11   16 ar
    21   11   12 ar
    22   12   13 ar
    23   12   37 1
    24   13   14 ar
    25   13   38 1
    26   14   19 1
    27   14   15 ar
    28   15   16 ar
    29   15   17 1
    30   16   39 1
    31   17   18 1
    32   18   19 2
    33   18   20 1
    34   20   21 am
    35   20   40 1
    36   21   22 2
    37   21   23 am
    38   23   24 1
    39   23   41 1
    40   24   28 1
    41   24   25 1
    42   24   42 1
    43   25   26 1
    44   25   43 1
    45   25   44 1
    46   26   27 1
    47   26   45 1
    48   26   46 1
    49   27   28 1
    50   27   47 1
    51   27   48 1
    52   28   49 1
    53   28   50 1
@<TRIPOS>MOLECULE
CHEMBL384942
   73    77     0     0     0
SMALL
USER_CHARGES

@<TRIPOS>ATOM
      1 C1          0.0307    1.5035    0.0088 C.3       1 <0>        -0.1277
      2 C2          0.0391   -0.0035    0.0008 C.ar      1 <0>        -0.0362
      3 C3          0.0395   -0.6862   -1.2002 C.ar      1 <0>        -0.1215
      4 C4          0.0472   -2.0662   -1.2163 C.ar      1 <0>        -0.0737
      5 C5          0.0541   -2.7807   -0.0161 C.ar      1 <0>        -0.1421
      6 C6          0.0537   -2.0964    1.1980 C.ar      1 <0>        -0.0359
      7 C7          0.0522   -0.7052    1.2058 C.ar      1 <0>        -0.0632
      8 C8          0.0583    0.0307    2.4941 C.ar      1 <0>        -0.0558
      9 C9          0.9846    1.0651    2.7005 C.ar      1 <0>        -0.0470
     10 C10         1.0120    1.7560    3.8710 C.ar      1 <0>        -0.1170
     11 C11         0.1046    1.4370    4.8935 C.ar      1 <0>         0.2114
     12 C12        -0.8360    0.3928    4.6947 C.ar      1 <0>        -0.2006
     13 C13        -0.8526   -0.3044    3.4800 C.ar      1 <0>        -0.0451
     14 C14        -1.7347    0.0941    5.7365 C.ar      1 <0>         0.2476
     15 N1         -1.6631    0.7960    6.8481 N.ar      1 <0>        -0.5679
     16 C15        -0.7674    1.7695    7.0006 C.ar      1 <0>         0.5629
     17 N2          0.0987    2.0934    6.0602 N.ar      1 <0>        -0.5582
     18 N3         -0.7445    2.4692    8.1934 N.pl3     1 <0>        -0.7037
     19 C16        -1.6935    2.1336    9.2578 C.3       1 <0>         0.1186
     20 C17        -1.4568    3.0503   10.4598 C.3       1 <0>        -0.0236
     21 N4         -2.4084    2.7138   11.5271 N.4       1 <0>        -0.3776
     22 C18        -3.7739    3.0013   11.0718 C.3       1 <0>        -0.0149
     23 C19        -4.7747    2.5771   12.1487 C.3       1 <0>        -0.1454
     24 C20        -4.4901    3.3547   13.4370 C.3       1 <0>        -0.1400
     25 C21        -3.0401    3.1060   13.8620 C.3       1 <0>        -0.1461
     26 C22        -2.1035    3.5106   12.7215 C.3       1 <0>        -0.0059
     27 C23         0.0613   -4.2589   -0.0337 C.2       1 <0>         0.5632
     28 O1          0.0673   -4.8792    1.0117 O.2       1 <0>        -0.5118
     29 N5          0.0613   -4.9189   -1.2088 N.am      1 <0>        -0.6633
     30 C24         0.1847   -6.3117   -1.2285 C.ar      1 <0>         0.1451
     31 C25         0.8044   -6.9706   -0.1742 C.ar      1 <0>        -0.0948
     32 C26         0.9243   -8.3461   -0.1966 C.ar      1 <0>        -0.1035
     33 C27         0.4282   -9.0677   -1.2671 C.ar      1 <0>        -0.0835
     34 C28        -0.1891   -8.4150   -2.3181 C.ar      1 <0>        -0.1653
     35 C29        -0.3170   -7.0397   -2.2994 C.ar      1 <0>        -0.0632
     36 C30        -0.9951   -6.3296   -3.4427 C.3       1 <0>        -0.1397
     37 C31        -0.7282   -9.2053   -3.4825 C.3       1 <0>         0.5112
     38 F1         -0.4873  -10.5674   -3.2730 F         1 <0>        -0.1739
     39 F2         -2.1055   -8.9875   -3.5962 F         1 <0>        -0.1742
     40 F3         -0.0924   -8.7948   -4.6590 F         1 <0>        -0.1741
     41 H1          1.0563    1.8726    0.0029 H         1 <0>         0.0807
     42 H2         -0.4919    1.8686   -0.8754 H         1 <0>         0.0755
     43 H3         -0.4783    1.8593    0.9045 H         1 <0>         0.0732
     44 H4          0.0335   -0.1376   -2.1305 H         1 <0>         0.1373
     45 H5          0.0475   -2.5945   -2.1583 H         1 <0>         0.1288
     46 H6          0.0591   -2.6439    2.1290 H         1 <0>         0.1407
     47 H7          1.6859    1.3155    1.9182 H         1 <0>         0.1396
     48 H8          1.7312    2.5489    4.0142 H         1 <0>         0.1433
     49 H9         -1.5668   -1.0978    3.3160 H         1 <0>         0.1408
     50 H10        -2.4664   -0.6926    5.6263 H         1 <0>         0.1826
     51 H11        -0.1001    3.1822    8.3252 H         1 <0>         0.4203
     52 H12        -2.7117    2.2687    8.8928 H         1 <0>         0.0872
     53 H13        -1.5501    1.0958    9.5586 H         1 <0>         0.0871
     54 H14        -0.4387    2.9152   10.8248 H         1 <0>         0.1387
     55 H15        -1.6003    4.0881   10.1590 H         1 <0>         0.1370
     56 H16        -3.8758    4.0699   10.8824 H         1 <0>         0.1301
     57 H17        -3.9738    2.4497   10.1531 H         1 <0>         0.1333
     58 H18        -5.7878    2.7930   11.8095 H         1 <0>         0.1131
     59 H19        -4.6738    1.5085   12.3387 H         1 <0>         0.0889
     60 H20        -4.6407    4.4197   13.2607 H         1 <0>         0.0820
     61 H21        -5.1639    3.0154   14.2238 H         1 <0>         0.0950
     62 H22        -2.8133    3.7000   14.7473 H         1 <0>         0.1134
     63 H23        -2.9032    2.0484   14.0875 H         1 <0>         0.0886
     64 H24        -1.0702    3.3350   13.0208 H         1 <0>         0.1314
     65 H25        -2.2410    4.5683   12.4969 H         1 <0>         0.1297
     66 H26        -0.0244   -4.4277   -2.0409 H         1 <0>         0.4132
     67 H27         1.1923   -6.4077    0.6618 H         1 <0>         0.1546
     68 H28         1.4063   -8.8589    0.6226 H         1 <0>         0.1405
     69 H29         0.5235  -10.1434   -1.2823 H         1 <0>         0.1417
     70 H30        -0.2551   -6.0719   -4.2004 H         1 <0>         0.0856
     71 H31        -1.7501   -6.9831   -3.8797 H         1 <0>         0.0846
     72 H32        -1.4704   -5.4203   -3.0749 H         1 <0>         0.0732
     73 H33        -2.3298    1.7327   11.7494 H         1 <0>         0.4251
@<TRIPOS>BOND
     1    1    2 1
     2    1   41 1
     3    1   42 1
     4    1   43 1
     5    2    7 ar
     6    2    3 ar
     7    3    4 ar
     8    3   44 1
     9    4    5 ar
    10    4   45 1
    11    5    6 ar
    12    5   27 1
    13    6    7 ar
    14    6   46 1
    15    7    8 1
    16    8   13 ar
    17    8    9 ar
    18    9   10 ar
    19    9   47 1
    20   10   11 ar
    21   10   48 1
    22   11   17 ar
    23   11   12 ar
    24   12   13 ar
    25   12   14 ar
    26   13   49 1
    27   14   15 ar
    28   14   50 1
    29   15   16 ar
    30   16   17 ar
    31   16   18 1
    32   18   19 1
    33   18   51 1
    34   19   20 1
    35   19   52 1
    36   19   53 1
    37   20   21 1
    38   20   54 1
    39   20   55 1
    40   21   26 1
    41   21   22 1
    42   21   73 1
    43   22   23 1
    44   22   56 1
    45   22   57 1
    46   23   24 1
    47   23   58 1
    48   23   59 1
    49   24   25 1
    50   24   60 1
    51   24   61 1
    52   25   26 1
    53   25   62 1
    54   25   63 1
    55   26   64 1
    56   26   65 1
    57   27   28 2
    58   27   29 am
    59   29   30 1
    60   29   66 1
    61   30   35 ar
    62   30   31 ar
    63   31   32 ar
    64   31   67 1
    65   32   33 ar
    66   32   68 1
    67   33   34 ar
    68   33   69 1
    69   34   35 ar
    70   34   37 1
    71   35   36 1
    72   36   70 1
    73   36   71 1
    74   36   72 1
    75   37   38 1
    76   37   39 1
    77   37   40 1
@<TRIPOS>MOLECULE
CHEMBL45651
   79    84     0     0     0
SMALL
USER_CHARGES

@<TRIPOS>ATOM
      1 C1         -1.1133    1.6444   -0.5583 C.3       1 <0>        -0.0458
      2 N1         -1.0078    0.1792   -0.5526 N.4       1 <0>        -0.3885
      3 C2         -2.3248   -0.4051   -0.2672 C.3       1 <0>        -0.0021
      4 C3         -2.2194   -1.9317   -0.2798 C.3       1 <0>         0.0200
      5 N2         -1.2441   -2.3609    0.7325 N.3       1 <0>        -0.5346
      6 C4          0.0737   -1.7637    0.4740 C.3       1 <0>         0.0195
      7 C5         -0.0507   -0.2385    0.4803 C.3       1 <0>        -0.0022
      8 C6         -1.1558   -3.8261    0.7906 C.3       1 <0>         0.0859
      9 C7         -2.5250   -4.4056    1.1518 C.3       1 <0>        -0.1099
     10 C8         -2.4331   -5.9316    1.2124 C.3       1 <0>        -0.1277
     11 C9         -1.4104   -6.3392    2.2749 C.3       1 <0>         0.1740
     12 C10        -0.0412   -5.7597    1.9137 C.3       1 <0>        -0.1266
     13 C11        -0.1331   -4.2336    1.8532 C.3       1 <0>        -0.1113
     14 N3         -1.3224   -7.8004    2.3328 N.pl3     1 <0>        -0.3778
     15 C12        -1.5948   -8.5626    3.4295 C.ar      1 <0>         0.3788
     16 C13        -1.3869   -9.9040    3.0570 C.ar      1 <0>        -0.3262
     17 C14        -0.9698   -9.8844    1.6551 C.2       1 <0>         0.1779
     18 N4         -0.9514   -8.6303    1.2695 N.2       1 <0>        -0.2380
     19 C15        -0.6360  -11.0640    0.8219 C.ar      1 <0>        -0.0051
     20 C16        -1.4624  -12.1870    0.8388 C.ar      1 <0>        -0.1242
     21 C17        -1.1514  -13.2849    0.0638 C.ar      1 <0>        -0.0791
     22 C18        -0.0158  -13.2747   -0.7345 C.ar      1 <0>         0.1567
     23 C19         0.8135  -12.1544   -0.7555 C.ar      1 <0>         0.1078
     24 C20         0.5017  -11.0498    0.0159 C.ar      1 <0>        -0.1540
     25 O1          1.9259  -12.1460   -1.5376 O.3       1 <0>        -0.3141
     26 C21         2.7296  -10.9648   -1.5097 C.3       1 <0>         0.0272
     27 N5          0.2975  -14.3916   -1.5195 N.am      1 <0>        -0.6732
     28 C22        -0.6894  -15.1510   -2.0351 C.2       1 <0>         0.7058
     29 O2         -1.8505  -14.8216   -1.8872 O.2       1 <0>        -0.5543
     30 N6         -0.3893  -16.2756   -2.7147 N.am      1 <0>        -0.6791
     31 C23        -1.4138  -17.1179   -3.1609 C.ar      1 <0>         0.1544
     32 C24        -2.6186  -16.5794   -3.5932 C.ar      1 <0>        -0.1188
     33 C25        -3.6276  -17.4134   -4.0335 C.ar      1 <0>        -0.1021
     34 C26        -3.4391  -18.7832   -4.0442 C.ar      1 <0>        -0.1316
     35 C27        -2.2407  -19.3226   -3.6140 C.ar      1 <0>        -0.1006
     36 C28        -1.2257  -18.4937   -3.1779 C.ar      1 <0>        -0.1434
     37 C29        -1.6007  -10.9077    4.0156 C.ar      1 <0>         0.5213
     38 N7         -1.9906  -10.5443    5.2337 N.ar      1 <0>        -0.6038
     39 C30        -2.1738   -9.2724    5.5403 C.ar      1 <0>         0.3915
     40 N8         -1.9863   -8.2992    4.6760 N.ar      1 <0>        -0.5797
     41 N9         -1.4112  -12.2395    3.7008 N.pl3     1 <0>        -0.8231
     42 H1         -0.1363    2.0782   -0.7714 H         1 <0>         0.1240
     43 H2         -1.8235    1.9545   -1.3248 H         1 <0>         0.1240
     44 H3         -1.4583    1.9876    0.4170 H         1 <0>         0.1233
     45 H4         -2.6651   -0.0725    0.7134 H         1 <0>         0.1380
     46 H5         -3.0372   -0.0839   -1.0271 H         1 <0>         0.1354
     47 H6         -3.1934   -2.3654   -0.0533 H         1 <0>         0.1268
     48 H7         -1.8923   -2.2656   -1.2645 H         1 <0>         0.0606
     49 H8          0.7727   -2.0748    1.2503 H         1 <0>         0.1271
     50 H9          0.4386   -2.0948   -0.4983 H         1 <0>         0.0603
     51 H10         0.9230    0.2063    0.2746 H         1 <0>         0.1352
     52 H11        -0.4025    0.0933    1.4571 H         1 <0>         0.1379
     53 H12        -0.8435   -4.2100   -0.1805 H         1 <0>         0.0567
     54 H13        -2.8373   -4.0216    2.1230 H         1 <0>         0.0823
     55 H14        -3.2536   -4.1152    0.3949 H         1 <0>         0.0719
     56 H15        -3.4085   -6.3444    1.4697 H         1 <0>         0.0768
     57 H16        -2.1207   -6.3156    0.2412 H         1 <0>         0.0785
     58 H17        -1.7227   -5.9552    3.2460 H         1 <0>         0.1124
     59 H18         0.6874   -6.0500    2.6706 H         1 <0>         0.0762
     60 H19         0.2711   -6.1437    0.9425 H         1 <0>         0.0780
     61 H20         0.8423   -3.8208    1.5958 H         1 <0>         0.0719
     62 H21        -0.4455   -3.8497    2.8243 H         1 <0>         0.0826
     63 H22        -2.3463  -12.1973    1.4594 H         1 <0>         0.1377
     64 H23        -1.7924  -14.1540    0.0783 H         1 <0>         0.1561
     65 H24         1.1407  -10.1793   -0.0026 H         1 <0>         0.1390
     66 H25         2.1345  -10.1126   -1.8378 H         1 <0>         0.0573
     67 H26         3.0845  -10.7907   -0.4939 H         1 <0>         0.0578
     68 H27         3.5829  -11.0901   -2.1762 H         1 <0>         0.1047
     69 H28         1.2246  -14.6185   -1.6921 H         1 <0>         0.4142
     70 H29         0.5369  -16.5011   -2.8944 H         1 <0>         0.4097
     71 H30        -2.7666  -15.5096   -3.5848 H         1 <0>         0.1397
     72 H31        -4.5650  -16.9952   -4.3695 H         1 <0>         0.1261
     73 H32        -4.2297  -19.4333   -4.3890 H         1 <0>         0.1247
     74 H33        -2.0967  -20.3929   -3.6232 H         1 <0>         0.1279
     75 H34        -0.2882  -18.9152   -2.8465 H         1 <0>         0.1256
     76 H35        -2.4908   -9.0216    6.5417 H         1 <0>         0.2061
     77 H36        -0.9986  -12.4846    2.8578 H         1 <0>         0.4147
     78 H37        -1.6907  -12.9294    4.3227 H         1 <0>         0.4129
     79 H38        -0.6879   -0.1383   -1.4554 H         1 <0>         0.4222
@<TRIPOS>BOND
     1    1    2 1
     2    1   42 1
     3    1   43 1
     4    1   44 1
     5    2    7 1
     6    2    3 1
     7    2   79 1
     8    3    4 1
     9    3   45 1
    10    3   46 1
    11    4    5 1
    12    4   47 1
    13    4   48 1
    14    5    6 1
    15    5    8 1
    16    6    7 1
    17    6   49 1
    18    6   50 1
    19    7   51 1
    20    7   52 1
    21    8   13 1
    22    8    9 1
    23    8   53 1
    24    9   10 1
    25    9   54 1
    26    9   55 1
    27   10   11 1
    28   10   56 1
    29   10   57 1
    30   11   12 1
    31   11   14 1
    32   11   58 1
    33   12   13 1
    34   12   59 1
    35   12   60 1
    36   13   61 1
    37   13   62 1
    38   14   18 1
    39   14   15 1
    40   15   40 ar
    41   15   16 ar
    42   16   17 1
    43   16   37 ar
    44   17   18 2
    45   17   19 1
    46   19   24 ar
    47   19   20 ar
    48   20   21 ar
    49   20   63 1
    50   21   22 ar
    51   21   64 1
    52   22   23 ar
    53   22   27 1
    54   23   24 ar
    55   23   25 1
    56   24   65 1
    57   25   26 1
    58   26   66 1
    59   26   67 1
    60   26   68 1
    61   27   28 am
    62   27   69 1
    63   28   29 2
    64   28   30 am
    65   30   31 1
    66   30   70 1
    67   31   36 ar
    68   31   32 ar
    69   32   33 ar
    70   32   71 1
    71   33   34 ar
    72   33   72 1
    73   34   35 ar
    74   34   73 1
    75   35   36 ar
    76   35   74 1
    77   36   75 1
    78   37   38 ar
    79   37   41 1
    80   38   39 ar
    81   39   40 ar
    82   39   76 1
    83   41   77 1
    84   41   78 1
@<TRIPOS>MOLECULE
CHEMBL45651__1
   79    84     0     0     0
SMALL
USER_CHARGES

@<TRIPOS>ATOM
      1 C1         -1.1191    1.6410   -0.6243 C.3       1 <0>         0.0194
      2 N1         -0.9954    0.1774   -0.6034 N.3       1 <0>        -0.5434
      3 C2         -2.3055   -0.4591   -0.4066 C.3       1 <0>         0.0253
      4 C3         -2.1421   -1.9800   -0.4504 C.3       1 <0>        -0.0068
      5 N2         -1.2099   -2.4030    0.6029 N.4       1 <0>        -0.3838
      6 C4          0.1007   -1.7787    0.3789 C.3       1 <0>        -0.0066
      7 C5         -0.0441   -0.2561    0.4296 C.3       1 <0>         0.0254
      8 C6         -1.0673   -3.8648    0.5721 C.3       1 <0>         0.0237
      9 C7         -2.4319   -4.5154    0.8072 C.3       1 <0>        -0.1365
     10 C8         -2.2834   -6.0378    0.7751 C.3       1 <0>        -0.1262
     11 C9         -1.3124   -6.4788    1.8721 C.3       1 <0>         0.1715
     12 C10         0.0523   -5.8281    1.6370 C.3       1 <0>        -0.1253
     13 C11        -0.0962   -4.3057    1.6691 C.3       1 <0>        -0.1364
     14 N3         -1.1702   -7.9365    1.8414 N.pl3     1 <0>        -0.3835
     15 C12        -1.4789   -8.7795    2.8671 C.ar      1 <0>         0.3802
     16 C13        -1.1955  -10.0848    2.4230 C.ar      1 <0>        -0.3263
     17 C14        -0.6944   -9.9568    1.0547 C.2       1 <0>         0.1877
     18 N4         -0.7022   -8.6799    0.7527 N.2       1 <0>        -0.2423
     19 C15        -0.2636  -11.0655    0.1703 C.ar      1 <0>        -0.0106
     20 C16        -1.0444  -12.2158    0.0622 C.ar      1 <0>        -0.1235
     21 C17        -0.6432  -13.2478   -0.7605 C.ar      1 <0>        -0.0794
     22 C18         0.5380  -13.1440   -1.4825 C.ar      1 <0>         0.1599
     23 C19         1.3219  -11.9961   -1.3784 C.ar      1 <0>         0.1080
     24 C20         0.9198  -10.9571   -0.5590 C.ar      1 <0>        -0.1530
     25 O1          2.4789  -11.8959   -2.0859 O.3       1 <0>        -0.3134
     26 C21         3.2319  -10.6913   -1.9308 C.3       1 <0>         0.0273
     27 N5          0.9427  -14.1942   -2.3162 N.am      1 <0>        -0.6736
     28 C22         0.0202  -14.9521   -2.9415 C.2       1 <0>         0.7061
     29 O2         -1.1599  -14.6748   -2.8470 O.2       1 <0>        -0.5543
     30 N6          0.4058  -16.0174   -3.6715 N.am      1 <0>        -0.6785
     31 C23        -0.5552  -16.8640   -4.2354 C.ar      1 <0>         0.1535
     32 C24        -1.7517  -16.3410   -4.7081 C.ar      1 <0>        -0.1187
     33 C25        -2.6980  -17.1791   -5.2645 C.ar      1 <0>        -0.1021
     34 C26        -2.4550  -18.5376   -5.3514 C.ar      1 <0>        -0.1311
     35 C27        -1.2647  -19.0615   -4.8813 C.ar      1 <0>        -0.1004
     36 C28        -0.3120  -18.2280   -4.3289 C.ar      1 <0>        -0.1430
     37 C29        -1.4276  -11.1572    3.2995 C.ar      1 <0>         0.5228
     38 N7         -1.9055  -10.8900    4.5111 N.ar      1 <0>        -0.6017
     39 C30        -2.1574   -9.6487    4.8866 C.ar      1 <0>         0.3945
     40 N8         -1.9561   -8.6139    4.1005 N.ar      1 <0>        -0.5826
     41 N9         -1.1665  -12.4574    2.9123 N.pl3     1 <0>        -0.8210
     42 H1         -0.1464    2.0848   -0.8367 H         1 <0>         0.0843
     43 H2         -1.8290    1.9346   -1.3976 H         1 <0>         0.0840
     44 H3         -1.4735    1.9896    0.3457 H         1 <0>         0.0396
     45 H4         -2.7112   -0.1647    0.5613 H         1 <0>         0.0605
     46 H5         -2.9857   -0.1435   -1.1976 H         1 <0>         0.1239
     47 H6         -3.1105   -2.4542   -0.2905 H         1 <0>         0.1375
     48 H7         -1.7493   -2.2753   -1.4234 H         1 <0>         0.1382
     49 H8          0.7951   -2.1037    1.1537 H         1 <0>         0.1372
     50 H9          0.4820   -2.0750   -0.5983 H         1 <0>         0.1380
     51 H10         0.9256    0.2076    0.2486 H         1 <0>         0.1237
     52 H11        -0.4125    0.0416    1.4113 H         1 <0>         0.0605
     53 H12        -0.6810   -4.1717   -0.3999 H         1 <0>         0.1416
     54 H13        -2.8182   -4.2084    1.7791 H         1 <0>         0.0916
     55 H14        -3.1237   -4.2012    0.0256 H         1 <0>         0.0965
     56 H15        -3.2556   -6.5013    0.9426 H         1 <0>         0.0907
     57 H16        -1.8972   -6.3448   -0.1969 H         1 <0>         0.0900
     58 H17        -1.6986   -6.1718    2.8441 H         1 <0>         0.1148
     59 H18         0.7441   -6.1423    2.4186 H         1 <0>         0.0901
     60 H19         0.4385   -6.1351    0.6651 H         1 <0>         0.0893
     61 H20         0.8760   -3.8422    1.5016 H         1 <0>         0.0963
     62 H21        -0.4825   -3.9987    2.6411 H         1 <0>         0.0917
     63 H22        -1.9635  -12.2990    0.6232 H         1 <0>         0.1376
     64 H23        -1.2488  -14.1382   -0.8428 H         1 <0>         0.1568
     65 H24         1.5237  -10.0652   -0.4806 H         1 <0>         0.1390
     66 H25         2.6246   -9.8408   -2.2406 H         1 <0>         0.0573
     67 H26         3.5167  -10.5729   -0.8854 H         1 <0>         0.0576
     68 H27         4.1287  -10.7415   -2.5483 H         1 <0>         0.1055
     69 H28         1.8870  -14.3760   -2.4436 H         1 <0>         0.4148
     70 H29         1.3494  -16.1974   -3.8060 H         1 <0>         0.4100
     71 H30        -1.9423  -15.2801   -4.6402 H         1 <0>         0.1395
     72 H31        -3.6289  -16.7731   -5.6320 H         1 <0>         0.1262
     73 H32        -3.1965  -19.1909   -5.7870 H         1 <0>         0.1249
     74 H33        -1.0781  -20.1230   -4.9502 H         1 <0>         0.1282
     75 H34         0.6194  -18.6371   -3.9663 H         1 <0>         0.1257
     76 H35        -2.5449   -9.4767    5.8799 H         1 <0>         0.2071
     77 H36        -0.6937  -12.6309    2.0833 H         1 <0>         0.4155
     78 H37        -1.4559  -13.1968    3.4694 H         1 <0>         0.4141
     79 H38        -1.5680   -2.1193    1.5025 H         1 <0>         0.4186
@<TRIPOS>BOND
     1    1    2 1
     2    1   42 1
     3    1   43 1
     4    1   44 1
     5    2    7 1
     6    2    3 1
     7    3    4 1
     8    3   45 1
     9    3   46 1
    10    4    5 1
    11    4   47 1
    12    4   48 1
    13    5    6 1
    14    5    8 1
    15    5   79 1
    16    6    7 1
    17    6   49 1
    18    6   50 1
    19    7   51 1
    20    7   52 1
    21    8   13 1
    22    8    9 1
    23    8   53 1
    24    9   10 1
    25    9   54 1
    26    9   55 1
    27   10   11 1
    28   10   56 1
    29   10   57 1
    30   11   12 1
    31   11   14 1
    32   11   58 1
    33   12   13 1
    34   12   59 1
    35   12   60 1
    36   13   61 1
    37   13   62 1
    38   14   18 1
    39   14   15 1
    40   15   40 ar
    41   15   16 ar
    42   16   17 1
    43   16   37 ar
    44   17   18 2
    45   17   19 1
    46   19   24 ar
    47   19   20 ar
    48   20   21 ar
    49   20   63 1
    50   21   22 ar
    51   21   64 1
    52   22   23 ar
    53   22   27 1
    54   23   24 ar
    55   23   25 1
    56   24   65 1
    57   25   26 1
    58   26   66 1
    59   26   67 1
    60   26   68 1
    61   27   28 am
    62   27   69 1
    63   28   29 2
    64   28   30 am
    65   30   31 1
    66   30   70 1
    67   31   36 ar
    68   31   32 ar
    69   32   33 ar
    70   32   71 1
    71   33   34 ar
    72   33   72 1
    73   34   35 ar
    74   34   73 1
    75   35   36 ar
    76   35   74 1
    77   36   75 1
    78   37   38 ar
    79   37   41 1
    80   38   39 ar
    81   39   40 ar
    82   39   76 1
    83   41   77 1
    84   41   78 1
@<TRIPOS>MOLECULE
CHEMBL592262
   75    80     0     0     0
SMALL
USER_CHARGES

@<TRIPOS>ATOM
      1 C1          0.4401    1.1495    0.0468 C.3       1 <0>        -0.0459
      2 N1          0.4033   -0.3189    0.0666 N.4       1 <0>        -0.3882
      3 C2         -0.9930   -0.7739    0.0396 C.3       1 <0>        -0.0025
      4 C3         -1.0314   -2.3036    0.0413 C.3       1 <0>         0.0260
      5 N2         -0.3575   -2.8064    1.2468 N.3       1 <0>        -0.5328
      6 C4          1.0347   -2.3383    1.3001 C.3       1 <0>         0.0190
      7 C5          1.0560   -0.8082    1.2881 C.3       1 <0>        -0.0015
      8 C6         -0.4229   -4.2724    1.3137 C.3       1 <0>         0.0560
      9 C7          0.0609   -4.7423    2.6870 C.3       1 <0>         0.0603
     10 O1         -0.8399   -4.2774    3.6942 O.3       1 <0>        -0.2981
     11 C8         -0.5528   -4.6104    4.9801 C.ar      1 <0>         0.1520
     12 C9          0.5739   -5.3644    5.2801 C.ar      1 <0>        -0.2231
     13 C10         0.8489   -5.6990    6.5821 C.ar      1 <0>        -0.0554
     14 C11         0.0225   -5.2982    7.6435 C.ar      1 <0>        -0.1519
     15 C12        -1.0862   -4.5426    7.3365 C.ar      1 <0>         0.2308
     16 C13        -1.3734   -4.2000    6.0125 C.ar      1 <0>        -0.1829
     17 N3         -1.9764   -4.0521    8.2927 N.pl3     1 <0>        -0.6855
     18 C14        -1.5264   -3.5329    9.4868 C.2       1 <0>         0.3782
     19 C15        -1.6618   -2.2556   10.0033 C.2       1 <0>        -0.2958
     20 C16        -1.0028   -2.2963   11.3187 C.2       1 <0>         0.1677
     21 N4         -0.5432   -3.5184   11.4818 N.2       1 <0>        -0.2653
     22 N5         -0.8550   -4.2772   10.3466 N.pl3     1 <0>        -0.3604
     23 C17        -0.4919   -5.6773   10.1078 C.3       1 <0>         0.1254
     24 C18         0.5159   -5.7974    8.9846 C.3       1 <0>        -0.0857
     25 C19        -0.8798   -1.1729   12.2781 C.ar      1 <0>        -0.0243
     26 C20        -0.7188    0.1308   11.8103 C.ar      1 <0>        -0.0768
     27 C21        -0.6046    1.1735   12.7051 C.ar      1 <0>        -0.1202
     28 C22        -0.6497    0.9265   14.0709 C.ar      1 <0>         0.1038
     29 C23        -0.8094   -0.3708   14.5398 C.ar      1 <0>        -0.1374
     30 C24        -0.9304   -1.4171   13.6499 C.ar      1 <0>        -0.0662
     31 O2         -0.5369    1.9560   14.9501 O.3       1 <0>        -0.2568
     32 C25         0.5766    2.0123   15.7270 C.ar      1 <0>         0.1177
     33 C26         1.6153    1.1161   15.5189 C.ar      1 <0>        -0.1946
     34 C27         2.7460    1.1755   16.3102 C.ar      1 <0>        -0.0825
     35 C28         2.8432    2.1267   17.3090 C.ar      1 <0>        -0.1500
     36 C29         1.8094    3.0207   17.5187 C.ar      1 <0>        -0.0819
     37 C30         0.6793    2.9698   16.7260 C.ar      1 <0>        -0.1433
     38 C31        -2.3208   -1.1070    9.3738 C.2       1 <0>         0.6119
     39 O3         -3.5069   -0.9082    9.5608 O.2       1 <0>        -0.5285
     40 N6         -1.6131   -0.2712    8.5883 N.am      1 <0>        -0.8494
     41 H1          1.4762    1.4873    0.0655 H         1 <0>         0.1243
     42 H2         -0.0442    1.5128   -0.8596 H         1 <0>         0.1248
     43 H3         -0.0845    1.5379    0.9197 H         1 <0>         0.1234
     44 H4         -1.5152   -0.3964    0.9188 H         1 <0>         0.1386
     45 H5         -1.4799   -0.3992   -0.8608 H         1 <0>         0.1367
     46 H6         -2.0677   -2.6415    0.0363 H         1 <0>         0.1253
     47 H7         -0.5212   -2.6812   -0.8448 H         1 <0>         0.0611
     48 H8          1.5057   -2.7014    2.2136 H         1 <0>         0.1221
     49 H9          1.5790   -2.7164    0.4348 H         1 <0>         0.0619
     50 H10         2.0883   -0.4591    1.3133 H         1 <0>         0.1358
     51 H11         0.5234   -0.4306    2.1609 H         1 <0>         0.1382
     52 H12        -1.4519   -4.5976    1.1602 H         1 <0>         0.1028
     53 H13         0.2129   -4.7003    0.5385 H         1 <0>         0.0707
     54 H14         0.0968   -5.8316    2.7065 H         1 <0>         0.0774
     55 H15         1.0569   -4.3426    2.8777 H         1 <0>         0.0638
     56 H16         1.2336   -5.6879    4.4886 H         1 <0>         0.1272
     57 H17         1.7277   -6.2889    6.7967 H         1 <0>         0.1287
     58 H18        -2.2512   -3.6102    5.7931 H         1 <0>         0.1347
     59 H19        -2.9293   -4.0769    8.1132 H         1 <0>         0.4240
     60 H20        -0.0633   -6.0956   11.0186 H         1 <0>         0.1137
     61 H21        -1.3882   -6.2391    9.8451 H         1 <0>         0.0942
     62 H22         0.7952   -6.8460    8.8816 H         1 <0>         0.1043
     63 H23         1.4066   -5.2315    9.2576 H         1 <0>         0.0837
     64 H24        -0.6833    0.3235   10.7483 H         1 <0>         0.1319
     65 H25        -0.4795    2.1835   12.3435 H         1 <0>         0.1390
     66 H26        -0.8434   -0.5599   15.6026 H         1 <0>         0.1379
     67 H27        -1.0598   -2.4252   14.0152 H         1 <0>         0.1378
     68 H28         1.5396    0.3725   14.7394 H         1 <0>         0.1287
     69 H29         3.5548    0.4782   16.1486 H         1 <0>         0.1264
     70 H30         3.7280    2.1712   17.9267 H         1 <0>         0.1265
     71 H31         1.8877    3.7624   18.2998 H         1 <0>         0.1329
     72 H32        -0.1259    3.6714   16.8871 H         1 <0>         0.1335
     73 H33        -0.6678   -0.4296    8.4393 H         1 <0>         0.4007
     74 H34        -2.0491    0.4887    8.1719 H         1 <0>         0.4030
     75 H35         0.8894   -0.6783   -0.7413 H         1 <0>         0.4222
@<TRIPOS>BOND
     1    1    2 1
     2    1   41 1
     3    1   42 1
     4    1   43 1
     5    2    7 1
     6    2    3 1
     7    2   75 1
     8    3    4 1
     9    3   44 1
    10    3   45 1
    11    4    5 1
    12    4   46 1
    13    4   47 1
    14    5    6 1
    15    5    8 1
    16    6    7 1
    17    6   48 1
    18    6   49 1
    19    7   50 1
    20    7   51 1
    21    8    9 1
    22    8   52 1
    23    8   53 1
    24    9   10 1
    25    9   54 1
    26    9   55 1
    27   10   11 1
    28   11   16 ar
    29   11   12 ar
    30   12   13 ar
    31   12   56 1
    32   13   14 ar
    33   13   57 1
    34   14   24 1
    35   14   15 ar
    36   15   16 ar
    37   15   17 1
    38   16   58 1
    39   17   18 1
    40   17   59 1
    41   18   22 1
    42   18   19 2
    43   19   20 1
    44   19   38 1
    45   20   21 2
    46   20   25 1
    47   21   22 1
    48   22   23 1
    49   23   24 1
    50   23   60 1
    51   23   61 1
    52   24   62 1
    53   24   63 1
    54   25   30 ar
    55   25   26 ar
    56   26   27 ar
    57   26   64 1
    58   27   28 ar
    59   27   65 1
    60   28   29 ar
    61   28   31 1
    62   29   30 ar
    63   29   66 1
    64   30   67 1
    65   31   32 1
    66   32   37 ar
    67   32   33 ar
    68   33   34 ar
    69   33   68 1
    70   34   35 ar
    71   34   69 1
    72   35   36 ar
    73   35   70 1
    74   36   37 ar
    75   36   71 1
    76   37   72 1
    77   38   39 2
    78   38   40 am
    79   40   73 1
    80   40   74 1
@<TRIPOS>MOLECULE
CHEMBL296103
   51    55     0     0     0
SMALL
USER_CHARGES

@<TRIPOS>ATOM
      1 C1          3.3370    1.3633    3.5653 C.ar      1 <0>        -0.1525
      2 C2          3.4192   -0.0168    3.5450 C.ar      1 <0>        -0.0822
      3 C3          3.5025   -0.6873    2.3401 C.ar      1 <0>        -0.1944
      4 C4          3.5032    0.0255    1.1495 C.ar      1 <0>         0.1209
      5 C5          3.4202    1.4104    1.1728 C.ar      1 <0>        -0.1462
      6 C6          3.3375    2.0760    2.3804 C.ar      1 <0>        -0.0822
      7 O1          3.5855   -0.6316   -0.0370 O.3       1 <0>        -0.2596
      8 C7          3.6573   -1.9885   -0.0113 C.ar      1 <0>         0.0815
      9 C8          2.4934   -2.7445   -0.0465 C.ar      1 <0>        -0.1152
     10 C9          2.5628   -4.1217   -0.0205 C.ar      1 <0>        -0.0950
     11 C10         3.8037   -4.7546    0.0407 C.ar      1 <0>        -0.0028
     12 C11         4.9707   -3.9925    0.0755 C.ar      1 <0>        -0.1139
     13 C12         4.8946   -2.6157    0.0443 C.ar      1 <0>        -0.1164
     14 C13         3.8820   -6.2349    0.0693 C.2       1 <0>        -0.1064
     15 C14         3.1900   -7.0680    0.8846 C.2       1 <0>         0.0665
     16 N1          3.5310   -8.3656    0.6127 N.pl3     1 <0>        -0.4484
     17 C15         4.4590   -8.4116   -0.3923 C.ar      1 <0>         0.3483
     18 C16         4.7196   -7.0869   -0.7844 C.ar      1 <0>        -0.2526
     19 C17         5.6424   -6.8580   -1.8136 C.ar      1 <0>         0.4936
     20 N2          6.2315   -7.9083   -2.3789 N.ar      1 <0>        -0.6005
     21 C18         5.9559   -9.1375   -1.9825 C.ar      1 <0>         0.3638
     22 N3          5.1023   -9.3977   -1.0159 N.ar      1 <0>        -0.5711
     23 N4          5.9333   -5.5718   -2.2318 N.pl3     1 <0>        -0.8312
     24 C19         2.9816   -9.5372    1.2994 C.3       1 <0>         0.1364
     25 C20         1.4615   -9.5741    1.1137 C.3       1 <0>        -0.1654
     26 C21         0.8878  -10.7561    1.8993 C.3       1 <0>         0.0641
     27 O2          1.2466  -10.6300    3.2768 O.3       1 <0>        -0.3782
     28 C22         2.6554  -10.6375    3.5159 C.3       1 <0>         0.0642
     29 C23         3.3002   -9.4507    2.7952 C.3       1 <0>        -0.1657
     30 H1          3.2678    1.8854    4.5083 H         1 <0>         0.1256
     31 H2          3.4186   -0.5710    4.4719 H         1 <0>         0.1259
     32 H3          3.5673   -1.7652    2.3248 H         1 <0>         0.1276
     33 H4          3.4209    1.9675    0.2475 H         1 <0>         0.1326
     34 H5          3.2732    3.1539    2.3991 H         1 <0>         0.1317
     35 H6          1.5325   -2.2536   -0.0939 H         1 <0>         0.1353
     36 H7          1.6570   -4.7092   -0.0472 H         1 <0>         0.1341
     37 H8          5.9333   -4.4797    0.1229 H         1 <0>         0.1335
     38 H9          5.7983   -2.0248    0.0675 H         1 <0>         0.1356
     39 H10         2.4781   -6.7556    1.6344 H         1 <0>         0.1779
     40 H11         6.4563   -9.9625   -2.4676 H         1 <0>         0.2002
     41 H12         5.4964   -4.8146   -1.8115 H         1 <0>         0.4112
     42 H13         6.5741   -5.4271   -2.9455 H         1 <0>         0.4081
     43 H14         3.4230  -10.4433    0.8844 H         1 <0>         0.1108
     44 H15         1.0268   -8.6455    1.4836 H         1 <0>         0.0810
     45 H16         1.2266   -9.6913    0.0558 H         1 <0>         0.0832
     46 H17        -0.1982  -10.7621    1.8056 H         1 <0>         0.1037
     47 H18         1.2922  -11.6872    1.5022 H         1 <0>         0.0575
     48 H19         2.8429  -10.5580    4.5867 H         1 <0>         0.1036
     49 H20         3.0830  -11.5670    3.1398 H         1 <0>         0.0575
     50 H21         4.3802   -9.4797    2.9398 H         1 <0>         0.0830
     51 H22         2.9026   -8.5196    3.1990 H         1 <0>         0.0810
@<TRIPOS>BOND
     1    1    6 ar
     2    1    2 ar
     3    1   30 1
     4    2    3 ar
     5    2   31 1
     6    3    4 ar
     7    3   32 1
     8    4    5 ar
     9    4    7 1
    10    5    6 ar
    11    5   33 1
    12    6   34 1
    13    7    8 1
    14    8   13 ar
    15    8    9 ar
    16    9   10 ar
    17    9   35 1
    18   10   11 ar
    19   10   36 1
    20   11   12 ar
    21   11   14 1
    22   12   13 ar
    23   12   37 1
    24   13   38 1
    25   14   18 1
    26   14   15 2
    27   15   16 1
    28   15   39 1
    29   16   17 1
    30   16   24 1
    31   17   22 ar
    32   17   18 ar
    33   18   19 ar
    34   19   20 ar
    35   19   23 1
    36   20   21 ar
    37   21   22 ar
    38   21   40 1
    39   23   41 1
    40   23   42 1
    41   24   29 1
    42   24   25 1
    43   24   43 1
    44   25   26 1
    45   25   44 1
    46   25   45 1
    47   26   27 1
    48   26   46 1
    49   26   47 1
    50   27   28 1
    51   28   29 1
    52   28   48 1
    53   28   49 1
    54   29   50 1
    55   29   51 1
@<TRIPOS>MOLECULE
CHEMBL1083644
   68    72     0     0     0
SMALL
USER_CHARGES

@<TRIPOS>ATOM
      1 C1          0.2214    1.0360    1.8542 C.3       1 <0>        -0.1477
      2 C2          0.1629   -0.3216    1.1511 C.3       1 <0>        -0.0955
      3 C3          1.1560   -1.2807    1.8104 C.3       1 <0>        -0.1495
      4 C4         -1.2514   -0.8943    1.2648 C.3       1 <0>         0.0877
      5 O1         -1.3371   -2.1048    0.5104 O.3       1 <0>        -0.3565
      6 C5         -2.5246   -2.7397    0.5062 C.2       1 <0>         0.6501
      7 O2         -3.4624   -2.2784    1.1262 O.2       1 <0>        -0.5502
      8 N1         -2.6731   -3.8867   -0.1857 N.am      1 <0>        -0.6529
      9 C6         -3.8779   -4.5959   -0.1149 C.ar      1 <0>         0.1673
     10 C7         -5.0817   -3.9094   -0.0145 C.ar      1 <0>        -0.1140
     11 C8         -6.2700   -4.6055    0.0553 C.ar      1 <0>        -0.0781
     12 C9         -6.2628   -5.9994    0.0251 C.ar      1 <0>        -0.0451
     13 C10        -5.0534   -6.6859   -0.0758 C.ar      1 <0>        -0.0923
     14 C11        -3.8683   -5.9848   -0.1510 C.ar      1 <0>        -0.1348
     15 C12        -7.5390   -6.7506    0.1005 C.2       1 <0>        -0.2492
     16 C13        -8.3359   -6.6901    1.2563 C.2       1 <0>         0.2416
     17 N2         -9.4656   -7.3587    1.3153 N.2       1 <0>        -0.5084
     18 C14        -9.8864   -8.1074    0.2898 C.2       1 <0>         0.3279
     19 C15       -11.0277   -8.8988    0.1076 C.2       1 <0>        -0.2366
     20 C16       -10.9438   -9.4584   -1.1733 C.2       1 <0>         0.1219
     21 N3         -9.8378   -9.0476   -1.7427 N.2       1 <0>        -0.3241
     22 N4         -9.1518   -8.2039   -0.8623 N.pl3     1 <0>        -0.3423
     23 C17        -7.9699   -7.5221   -0.9742 C.2       1 <0>         0.5033
     24 N5         -7.2203   -7.6025   -2.1248 N.pl3     1 <0>        -0.8208
     25 C18       -12.1195   -9.1052    1.0869 C.ar      1 <0>         0.0705
     26 C19       -11.8212   -9.4613    2.4029 C.ar      1 <0>        -0.1327
     27 C20       -12.8399   -9.6532    3.3139 C.ar      1 <0>        -0.0688
     28 C21       -14.1577   -9.4938    2.9277 C.ar      1 <0>        -0.1925
     29 C22       -14.4648   -9.1392    1.6193 C.ar      1 <0>         0.1952
     30 C23       -13.4474   -8.9387    0.6985 C.ar      1 <0>        -0.1803
     31 N6        -15.7978   -8.9797    1.2333 N.pl3     1 <0>        -0.6461
     32 C24       -16.1535   -8.7280   -0.1718 C.3       1 <0>         0.0985
     33 C25       -17.2473   -9.7198   -0.5811 C.3       1 <0>        -0.0234
     34 N7        -18.3731   -9.6198    0.3563 N.4       1 <0>        -0.5038
     35 C26       -17.9451  -10.0353    1.6981 C.3       1 <0>        -0.0232
     36 C27       -16.8862   -9.0647    2.2194 C.3       1 <0>         0.0977
     37 H1          1.2289    1.4440    1.7732 H         1 <0>         0.0686
     38 H2         -0.4861    1.7193    1.3845 H         1 <0>         0.0599
     39 H3         -0.0369    0.9119    2.9059 H         1 <0>         0.0603
     40 H4          0.4211   -0.1975    0.0994 H         1 <0>         0.0832
     41 H5          1.1143   -2.2478    1.3095 H         1 <0>         0.0604
     42 H6          2.1635   -0.8727    1.7294 H         1 <0>         0.0607
     43 H7          0.8977   -1.4047    2.8621 H         1 <0>         0.0559
     44 H8         -1.4764   -1.1014    2.3110 H         1 <0>         0.0723
     45 H9         -1.9684   -0.1717    0.8751 H         1 <0>         0.0716
     46 H10        -1.9450   -4.2209   -0.7327 H         1 <0>         0.4200
     47 H11        -5.0868   -2.8297    0.0093 H         1 <0>         0.1458
     48 H12        -7.2055   -4.0714    0.1338 H         1 <0>         0.1312
     49 H13        -5.0450   -7.7656   -0.0994 H         1 <0>         0.1292
     50 H14        -2.9316   -6.5158   -0.2339 H         1 <0>         0.1338
     51 H15        -8.0189   -6.0929    2.0984 H         1 <0>         0.1813
     52 H16       -11.6714  -10.1207   -1.6187 H         1 <0>         0.1961
     53 H17        -6.3824   -7.1184   -2.1925 H         1 <0>         0.4270
     54 H18        -7.5295   -8.1432   -2.8683 H         1 <0>         0.4181
     55 H19       -10.7929   -9.5872    2.7083 H         1 <0>         0.1236
     56 H20       -12.6068   -9.9292    4.3317 H         1 <0>         0.1270
     57 H21       -14.9509   -9.6456    3.6448 H         1 <0>         0.1196
     58 H22       -13.6836   -8.6585   -0.3174 H         1 <0>         0.1207
     59 H23       -16.5246   -7.7087   -0.2787 H         1 <0>         0.0862
     60 H24       -15.2760   -8.8695   -0.8027 H         1 <0>         0.1263
     61 H25       -17.5914   -9.4860   -1.5886 H         1 <0>         0.1424
     62 H26       -16.8457  -10.7329   -0.5600 H         1 <0>         0.1345
     63 H27       -18.6982   -8.6652    0.3890 H         1 <0>         0.4279
     64 H28       -18.8033  -10.0339    2.3700 H         1 <0>         0.1429
     65 H29       -17.5223  -11.0388    1.6502 H         1 <0>         0.1342
     66 H30       -16.4929   -9.4287    3.1686 H         1 <0>         0.1276
     67 H31       -17.3325   -8.0800    2.3580 H         1 <0>         0.0862
     68 H32       -19.1235  -10.2176    0.0439 H         1 <0>         0.4326
@<TRIPOS>BOND
     1    1    2 1
     2    1   37 1
     3    1   38 1
     4    1   39 1
     5    2    3 1
     6    2    4 1
     7    2   40 1
     8    3   41 1
     9    3   42 1
    10    3   43 1
    11    4    5 1
    12    4   44 1
    13    4   45 1
    14    5    6 1
    15    6    7 2
    16    6    8 am
    17    8    9 1
    18    8   46 1
    19    9   14 ar
    20    9   10 ar
    21   10   11 ar
    22   10   47 1
    23   11   12 ar
    24   11   48 1
    25   12   13 ar
    26   12   15 1
    27   13   14 ar
    28   13   49 1
    29   14   50 1
    30   15   23 2
    31   15   16 1
    32   16   17 2
    33   16   51 1
    34   17   18 1
    35   18   22 1
    36   18   19 2
    37   19   20 1
    38   19   25 1
    39   20   21 2
    40   20   52 1
    41   21   22 1
    42   22   23 1
    43   23   24 1
    44   24   53 1
    45   24   54 1
    46   25   30 ar
    47   25   26 ar
    48   26   27 ar
    49   26   55 1
    50   27   28 ar
    51   27   56 1
    52   28   29 ar
    53   28   57 1
    54   29   30 ar
    55   29   31 1
    56   30   58 1
    57   31   36 1
    58   31   32 1
    59   32   33 1
    60   32   59 1
    61   32   60 1
    62   33   34 1
    63   33   61 1
    64   33   62 1
    65   34   35 1
    66   34   63 1
    67   34   68 1
    68   35   36 1
    69   35   64 1
    70   35   65 1
    71   36   66 1
    72   36   67 1
@<TRIPOS>MOLECULE
CHEMBL220643
   57    61     0     0     0
SMALL
USER_CHARGES

@<TRIPOS>ATOM
      1 C1         -2.4148   -1.1041    1.4830 C.3       1 <0>        -0.1145
      2 C2         -1.1307   -1.2535    0.7086 C.ar      1 <0>        -0.0888
      3 C3         -1.1251   -1.9321   -0.4948 C.ar      1 <0>        -0.0957
      4 C4          0.0505   -2.0705   -1.2076 C.ar      1 <0>        -0.1311
      5 C5          1.2301   -1.5280   -0.7166 C.ar      1 <0>         0.1156
      6 C6          1.2289   -0.8466    0.4901 C.ar      1 <0>        -0.1372
      7 C7          0.0458   -0.7039    1.2024 C.ar      1 <0>         0.1449
      8 N1          0.0394   -0.0127    2.4174 N.pl3     1 <0>        -0.6540
      9 C8         -0.0519   -0.7114    3.6124 C.ar      1 <0>         0.5032
     10 C9         -0.0275   -2.1030    3.6195 C.ar      1 <0>        -0.3593
     11 C10        -0.1215   -2.7603    4.8426 C.ar      1 <0>         0.4911
     12 N2         -0.2310   -2.0410    5.9575 N.ar      1 <0>        -0.6179
     13 C11        -0.2509   -0.7189    5.9119 C.ar      1 <0>         0.6364
     14 N3         -0.1586   -0.0598    4.7683 N.ar      1 <0>        -0.6044
     15 N4         -0.3672   -0.0017    7.0998 N.pl3     1 <0>        -0.4313
     16 C12        -0.4610   -0.5257    8.3562 C.2       1 <0>         0.2894
     17 N5         -0.5564    0.4305    9.2322 N.2       1 <0>        -0.4697
     18 C13        -0.5308    1.6341    8.6024 C.ar      1 <0>         0.0462
     19 C14        -0.4031    1.3759    7.2272 C.ar      1 <0>         0.0597
     20 C15        -0.3439    2.4295    6.3272 C.ar      1 <0>        -0.0906
     21 C16        -0.4073    3.7284    6.7864 C.ar      1 <0>        -0.0995
     22 C17        -0.5301    3.9890    8.1434 C.ar      1 <0>        -0.1156
     23 C18        -0.5984    2.9556    9.0503 C.ar      1 <0>        -0.0639
     24 N6         -0.1019   -4.1453    4.8992 N.pl3     1 <0>        -0.6152
     25 C19        -0.4154   -4.8558    6.1487 C.3       1 <0>         0.1019
     26 C20        -1.4680   -5.9276    5.8470 C.3       1 <0>        -0.0226
     27 N7         -0.9875   -6.7925    4.7621 N.4       1 <0>        -0.3855
     28 C21        -0.8508   -6.0138    3.5248 C.3       1 <0>        -0.0215
     29 C22         0.2269   -4.9464    3.7100 C.3       1 <0>         0.0995
     30 C23        -1.9463   -7.8847    4.5478 C.3       1 <0>        -0.0471
     31 O1          2.3855   -1.6654   -1.4186 O.3       1 <0>        -0.4969
     32 H1         -2.9238   -0.1924    1.1701 H         1 <0>         0.0780
     33 H2         -3.0573   -1.9633    1.2905 H         1 <0>         0.0690
     34 H3         -2.1921   -1.0485    2.5486 H         1 <0>         0.0622
     35 H4         -2.0414   -2.3555   -0.8790 H         1 <0>         0.1355
     36 H5          0.0516   -2.6018   -2.1479 H         1 <0>         0.1368
     37 H6          2.1458   -0.4242    0.8738 H         1 <0>         0.1363
     38 H7          0.0989    0.9555    2.4249 H         1 <0>         0.4229
     39 H8          0.0620   -2.6593    2.6981 H         1 <0>         0.1464
     40 H9         -0.4570   -1.5803    8.5890 H         1 <0>         0.2215
     41 H10        -0.2480    2.2332    5.2695 H         1 <0>         0.1389
     42 H11        -0.3608    4.5482    6.0848 H         1 <0>         0.1352
     43 H12        -0.5784    5.0105    8.4905 H         1 <0>         0.1364
     44 H13        -0.6924    3.1660   10.1054 H         1 <0>         0.1365
     45 H14         0.4867   -5.3277    6.5379 H         1 <0>         0.0934
     46 H15        -0.8093   -4.1516    6.8815 H         1 <0>         0.1381
     47 H16        -1.6422   -6.5276    6.7402 H         1 <0>         0.1455
     48 H17        -2.3988   -5.4478    5.5441 H         1 <0>         0.1326
     49 H18        -0.5700   -6.6773    2.7069 H         1 <0>         0.1465
     50 H19        -1.8002   -5.5314    3.2922 H         1 <0>         0.1342
     51 H20         0.2575   -4.3020    2.8314 H         1 <0>         0.1301
     52 H21         1.1950   -5.4276    3.8488 H         1 <0>         0.0982
     53 H22        -2.9169   -7.4683    4.2785 H         1 <0>         0.1219
     54 H23        -1.5906   -8.5276    3.7426 H         1 <0>         0.1260
     55 H24        -2.0426   -8.4684    5.4632 H         1 <0>         0.1266
     56 H25         2.5505   -0.9504   -2.0485 H         1 <0>         0.3994
     57 H26        -0.0908   -7.1802    5.0148 H         1 <0>         0.4261
@<TRIPOS>BOND
     1    1    2 1
     2    1   32 1
     3    1   33 1
     4    1   34 1
     5    2    7 ar
     6    2    3 ar
     7    3    4 ar
     8    3   35 1
     9    4    5 ar
    10    4   36 1
    11    5    6 ar
    12    5   31 1
    13    6    7 ar
    14    6   37 1
    15    7    8 1
    16    8    9 1
    17    8   38 1
    18    9   14 ar
    19    9   10 ar
    20   10   11 ar
    21   10   39 1
    22   11   12 ar
    23   11   24 1
    24   12   13 ar
    25   13   14 ar
    26   13   15 1
    27   15   19 1
    28   15   16 1
    29   16   17 2
    30   16   40 1
    31   17   18 1
    32   18   23 ar
    33   18   19 ar
    34   19   20 ar
    35   20   21 ar
    36   20   41 1
    37   21   22 ar
    38   21   42 1
    39   22   23 ar
    40   22   43 1
    41   23   44 1
    42   24   29 1
    43   24   25 1
    44   25   26 1
    45   25   45 1
    46   25   46 1
    47   26   27 1
    48   26   47 1
    49   26   48 1
    50   27   28 1
    51   27   30 1
    52   27   57 1
    53   28   29 1
    54   28   49 1
    55   28   50 1
    56   29   51 1
    57   29   52 1
    58   30   53 1
    59   30   54 1
    60   30   55 1
    61   31   56 1
@<TRIPOS>MOLECULE
CHEMBL220643__1
   56    60     0     0     0
SMALL
USER_CHARGES

@<TRIPOS>ATOM
      1 C1         -2.4205   -1.1041    1.4870 C.3       1 <0>        -0.1144
      2 C2         -1.1377   -1.2536    0.7103 C.ar      1 <0>        -0.0859
      3 C3         -1.1343   -1.9322   -0.4931 C.ar      1 <0>        -0.0953
      4 C4          0.0401   -2.0706   -1.2079 C.ar      1 <0>        -0.1331
      5 C5          1.2206   -1.5282   -0.7190 C.ar      1 <0>         0.1112
      6 C6          1.2215   -0.8468    0.4877 C.ar      1 <0>        -0.1380
      7 C7          0.0397   -0.7040    1.2021 C.ar      1 <0>         0.1526
      8 N1          0.0354   -0.0128    2.4170 N.pl3     1 <0>        -0.6613
      9 C8         -0.0539   -0.7114    3.6122 C.ar      1 <0>         0.4944
     10 C9         -0.0295   -2.1031    3.6193 C.ar      1 <0>        -0.3633
     11 C10        -0.1215   -2.7603    4.8426 C.ar      1 <0>         0.4970
     12 N2         -0.2291   -2.0410    5.9576 N.ar      1 <0>        -0.6175
     13 C11        -0.2489   -0.7189    5.9121 C.ar      1 <0>         0.6242
     14 N3         -0.1586   -0.0598    4.7683 N.ar      1 <0>        -0.6160
     15 N4         -0.3631   -0.0016    7.1001 N.pl3     1 <0>        -0.4276
     16 C12        -0.4548   -0.5256    8.3567 C.2       1 <0>         0.2980
     17 N5         -0.5487    0.4307    9.2328 N.2       1 <0>        -0.4806
     18 C13        -0.5240    1.6342    8.6030 C.ar      1 <0>         0.0469
     19 C14        -0.3987    1.3760    7.2276 C.ar      1 <0>         0.0614
     20 C15        -0.3410    2.4296    6.3275 C.ar      1 <0>        -0.0872
     21 C16        -0.4035    3.7285    6.7867 C.ar      1 <0>        -0.1074
     22 C17        -0.5239    3.9891    8.1439 C.ar      1 <0>        -0.1200
     23 C18        -0.5908    2.9557    9.0510 C.ar      1 <0>        -0.0684
     24 N6         -0.1019   -4.1453    4.8992 N.pl3     1 <0>        -0.5925
     25 C19        -0.4155   -4.8542    6.1491 C.3       1 <0>         0.1272
     26 C20        -1.4822   -5.9139    5.8533 C.3       1 <0>         0.0389
     27 N7         -1.0243   -6.7706    4.7513 N.3       1 <0>        -0.5426
     28 C21        -0.8592   -6.0008    3.5111 C.3       1 <0>         0.0400
     29 C22         0.2270   -4.9449    3.7094 C.3       1 <0>         0.1257
     30 C23        -1.9381   -7.9031    4.5503 C.3       1 <0>         0.0245
     31 O1          2.3748   -1.6656   -1.4230 O.3       1 <0>        -0.4961
     32 H1         -2.9299   -0.1924    1.1750 H         1 <0>         0.0744
     33 H2         -3.0633   -1.9632    1.2956 H         1 <0>         0.0693
     34 H3         -2.1959   -1.0484    2.5522 H         1 <0>         0.0651
     35 H4         -2.0512   -2.3555   -0.8757 H         1 <0>         0.1340
     36 H5          0.0396   -2.6020   -2.1482 H         1 <0>         0.1344
     37 H6          2.1391   -0.4244    0.8698 H         1 <0>         0.1345
     38 H7          0.0950    0.9554    2.4244 H         1 <0>         0.4181
     39 H8          0.0583   -2.6594    2.6978 H         1 <0>         0.1449
     40 H9         -0.4504   -1.5802    8.5895 H         1 <0>         0.2230
     41 H10        -0.2469    2.2333    5.2696 H         1 <0>         0.1394
     42 H11        -0.3581    4.5483    6.0850 H         1 <0>         0.1316
     43 H12        -0.5716    5.0107    8.4911 H         1 <0>         0.1320
     44 H13        -0.6829    3.1662   10.1062 H         1 <0>         0.1329
     45 H14         0.4838   -5.3368    6.5319 H         1 <0>         0.0759
     46 H15        -0.7966   -4.1468    6.8857 H         1 <0>         0.0994
     47 H16        -1.6470   -6.5222    6.7426 H         1 <0>         0.0908
     48 H17        -2.4134   -5.4234    5.5699 H         1 <0>         0.0386
     49 H18        -0.5722   -6.6722    2.7018 H         1 <0>         0.0915
     50 H19        -1.7991   -5.5091    3.2604 H         1 <0>         0.0399
     51 H20         0.2706   -4.2973    2.8337 H         1 <0>         0.0902
     52 H21         1.1893   -5.4363    3.8531 H         1 <0>         0.0812
     53 H22        -2.9336   -7.5287    4.3116 H         1 <0>         0.0265
     54 H23        -1.5757   -8.5211    3.7288 H         1 <0>         0.0713
     55 H24        -1.9832   -8.4998    5.4614 H         1 <0>         0.0723
     56 H25         2.5387   -0.9507   -2.0532 H         1 <0>         0.3940
@<TRIPOS>BOND
     1    1    2 1
     2    1   32 1
     3    1   33 1
     4    1   34 1
     5    2    7 ar
     6    2    3 ar
     7    3    4 ar
     8    3   35 1
     9    4    5 ar
    10    4   36 1
    11    5    6 ar
    12    5   31 1
    13    6    7 ar
    14    6   37 1
    15    7    8 1
    16    8    9 1
    17    8   38 1
    18    9   14 ar
    19    9   10 ar
    20   10   11 ar
    21   10   39 1
    22   11   12 ar
    23   11   24 1
    24   12   13 ar
    25   13   14 ar
    26   13   15 1
    27   15   19 1
    28   15   16 1
    29   16   17 2
    30   16   40 1
    31   17   18 1
    32   18   23 ar
    33   18   19 ar
    34   19   20 ar
    35   20   21 ar
    36   20   41 1
    37   21   22 ar
    38   21   42 1
    39   22   23 ar
    40   22   43 1
    41   23   44 1
    42   24   29 1
    43   24   25 1
    44   25   26 1
    45   25   45 1
    46   25   46 1
    47   26   27 1
    48   26   47 1
    49   26   48 1
    50   27   28 1
    51   27   30 1
    52   28   29 1
    53   28   49 1
    54   28   50 1
    55   29   51 1
    56   29   52 1
    57   30   53 1
    58   30   54 1
    59   30   55 1
    60   31   56 1
@<TRIPOS>MOLECULE
CHEMBL221553
   52    56     0     0     0
SMALL
USER_CHARGES

@<TRIPOS>ATOM
      1 C1         -2.4144   -1.1041    1.4827 C.3       1 <0>        -0.1149
      2 C2         -1.1301   -1.2535    0.7085 C.ar      1 <0>        -0.0861
      3 C3         -1.1244   -1.9321   -0.4950 C.ar      1 <0>        -0.0952
      4 C4          0.0513   -2.0705   -1.2076 C.ar      1 <0>        -0.1327
      5 C5          1.2308   -1.5280   -0.7164 C.ar      1 <0>         0.1112
      6 C6          1.2295   -0.8466    0.4903 C.ar      1 <0>        -0.1381
      7 C7          0.0463   -0.7039    1.2024 C.ar      1 <0>         0.1514
      8 N1          0.0397   -0.0127    2.4174 N.pl3     1 <0>        -0.6605
      9 C8         -0.0518   -0.7113    3.6124 C.ar      1 <0>         0.4955
     10 C9         -0.0273   -2.1030    3.6195 C.ar      1 <0>        -0.3628
     11 C10        -0.1215   -2.7603    4.8426 C.ar      1 <0>         0.4974
     12 N2         -0.2312   -2.0410    5.9574 N.ar      1 <0>        -0.6176
     13 C11        -0.2511   -0.7189    5.9119 C.ar      1 <0>         0.6253
     14 N3         -0.1586   -0.0598    4.7683 N.ar      1 <0>        -0.6148
     15 N4         -0.3675   -0.0017    7.0997 N.pl3     1 <0>        -0.4280
     16 C12        -0.4615   -0.5257    8.3562 C.2       1 <0>         0.2976
     17 N5         -0.5570    0.4305    9.2321 N.2       1 <0>        -0.4797
     18 C13        -0.5313    1.6341    8.6024 C.ar      1 <0>         0.0469
     19 C14        -0.4034    1.3759    7.2272 C.ar      1 <0>         0.0613
     20 C15        -0.3441    2.4295    6.3272 C.ar      1 <0>        -0.0874
     21 C16        -0.4076    3.7284    6.7863 C.ar      1 <0>        -0.1068
     22 C17        -0.5305    3.9890    8.1433 C.ar      1 <0>        -0.1197
     23 C18        -0.5990    2.9556    9.0502 C.ar      1 <0>        -0.0681
     24 N6         -0.1019   -4.1453    4.8992 N.pl3     1 <0>        -0.5956
     25 C19        -0.4154   -4.8568    6.1485 C.3       1 <0>         0.0879
     26 C20        -1.4705   -5.9264    5.8441 C.3       1 <0>         0.0460
     27 O1         -1.0232   -6.7309    4.7503 O.3       1 <0>        -0.3766
     28 C21        -0.8543   -6.0124    3.5260 C.3       1 <0>         0.0477
     29 C22         0.2269   -4.9474    3.7102 C.3       1 <0>         0.0862
     30 O2          2.3864   -1.6654   -1.4183 O.3       1 <0>        -0.4962
     31 H1         -2.9233   -0.1924    1.1698 H         1 <0>         0.0748
     32 H2         -3.0568   -1.9633    1.2901 H         1 <0>         0.0702
     33 H3         -2.1918   -1.0485    2.5483 H         1 <0>         0.0648
     34 H4         -2.0406   -2.3555   -0.8793 H         1 <0>         0.1347
     35 H5          0.0525   -2.6018   -2.1479 H         1 <0>         0.1348
     36 H6          2.1463   -0.4241    0.8741 H         1 <0>         0.1345
     37 H7          0.0992    0.9555    2.4249 H         1 <0>         0.4185
     38 H8          0.0623   -2.6593    2.6981 H         1 <0>         0.1453
     39 H9         -0.4575   -1.5803    8.5889 H         1 <0>         0.2228
     40 H10        -0.2481    2.2332    5.2695 H         1 <0>         0.1394
     41 H11        -0.3610    4.5482    6.0848 H         1 <0>         0.1319
     42 H12        -0.5789    5.0105    8.4905 H         1 <0>         0.1323
     43 H13        -0.6931    3.1660   10.1054 H         1 <0>         0.1332
     44 H14         0.4860   -5.3306    6.5373 H         1 <0>         0.0768
     45 H15        -0.8070   -4.1534    6.8833 H         1 <0>         0.1051
     46 H16        -1.6159   -6.5549    6.7228 H         1 <0>         0.1102
     47 H17        -2.4120   -5.4444    5.5805 H         1 <0>         0.0562
     48 H18        -0.5564   -6.7028    2.7368 H         1 <0>         0.1106
     49 H19        -1.7935   -5.5308    3.2539 H         1 <0>         0.0574
     50 H20         0.2604   -4.3040    2.8310 H         1 <0>         0.0962
     51 H21         1.1941   -5.4305    3.8492 H         1 <0>         0.0821
     52 H22         2.5514   -0.9504   -2.0481 H         1 <0>         0.3942
@<TRIPOS>BOND
     1    1    2 1
     2    1   31 1
     3    1   32 1
     4    1   33 1
     5    2    7 ar
     6    2    3 ar
     7    3    4 ar
     8    3   34 1
     9    4    5 ar
    10    4   35 1
    11    5    6 ar
    12    5   30 1
    13    6    7 ar
    14    6   36 1
    15    7    8 1
    16    8    9 1
    17    8   37 1
    18    9   14 ar
    19    9   10 ar
    20   10   11 ar
    21   10   38 1
    22   11   12 ar
    23   11   24 1
    24   12   13 ar
    25   13   14 ar
    26   13   15 1
    27   15   19 1
    28   15   16 1
    29   16   17 2
    30   16   39 1
    31   17   18 1
    32   18   23 ar
    33   18   19 ar
    34   19   20 ar
    35   20   21 ar
    36   20   40 1
    37   21   22 ar
    38   21   41 1
    39   22   23 ar
    40   22   42 1
    41   23   43 1
    42   24   29 1
    43   24   25 1
    44   25   26 1
    45   25   44 1
    46   25   45 1
    47   26   27 1
    48   26   46 1
    49   26   47 1
    50   27   28 1
    51   28   29 1
    52   28   48 1
    53   28   49 1
    54   29   50 1
    55   29   51 1
    56   30   52 1
@<TRIPOS>MOLECULE
CHEMBL213745
   57    62     0     0     0
SMALL
USER_CHARGES

@<TRIPOS>ATOM
      1 C1         -0.1430    1.1403   -0.0615 C.ar      1 <0>        -0.0790
      2 C2          0.9943    1.8847   -0.3195 C.ar      1 <0>        -0.1091
      3 C3          2.2348    1.2787   -0.3201 C.ar      1 <0>        -0.0013
      4 C4          2.3400   -0.0902   -0.0588 C.ar      1 <0>        -0.0339
      5 C5          1.1867   -0.8354    0.2014 C.ar      1 <0>         0.0175
      6 C6         -0.0469   -0.2153    0.1981 C.ar      1 <0>        -0.1070
      7 Cl1         1.3048   -2.5365    0.5267 Cl        1 <0>        -0.0490
      8 C7          3.6629   -0.7459   -0.0582 C.2       1 <0>         0.1368
      9 C8          4.3269   -0.8971   -1.2224 C.2       1 <0>        -0.0884
     10 C9          5.6421   -1.5501   -1.2144 C.ar      1 <0>        -0.2655
     11 C10         6.3800   -1.7371   -2.3800 C.ar      1 <0>         0.2354
     12 N1          7.5600   -2.3351   -2.2911 N.ar      1 <0>        -0.5812
     13 C11         8.0331   -2.7479   -1.1239 C.ar      1 <0>         0.6055
     14 N2          7.3626   -2.5900    0.0105 N.ar      1 <0>        -0.6076
     15 C12         6.1759   -2.0016    0.0086 C.ar      1 <0>         0.5144
     16 N3          5.4562   -1.8235    1.1776 N.pl3     1 <0>        -0.4151
     17 N4          4.2086   -1.1954    1.1560 N.am      1 <0>        -0.3556
     18 C13         3.6613   -1.1058    2.3882 C.2       1 <0>         0.5262
     19 O1          2.5842   -0.6094    2.6431 O.2       1 <0>        -0.4816
     20 C14         4.5997   -1.7196    3.3970 C.3       1 <0>        -0.1614
     21 C15         5.7950   -2.2026    2.5590 C.3       1 <0>         0.1375
     22 N5          9.2714   -3.3668   -1.0867 N.pl3     1 <0>        -0.6306
     23 C16        10.0517   -3.4423   -2.2475 C.ar      1 <0>         0.1022
     24 C17        10.0930   -2.3687   -3.1274 C.ar      1 <0>        -0.0520
     25 C18        10.8622   -2.4430   -4.2716 C.ar      1 <0>        -0.1804
     26 C19        11.5949   -3.5913   -4.5423 C.ar      1 <0>         0.2097
     27 C20        11.5540   -4.6647   -3.6621 C.ar      1 <0>        -0.1804
     28 C21        10.7886   -4.5885   -2.5155 C.ar      1 <0>        -0.0897
     29 N6         12.3742   -3.6669   -5.7023 N.pl3     1 <0>        -0.6342
     30 C22        13.0630   -4.9135   -6.0723 C.3       1 <0>         0.0873
     31 C23        12.7274   -5.2361   -7.5329 C.3       1 <0>         0.0453
     32 O2         13.0062   -4.0921   -8.3436 O.3       1 <0>        -0.3796
     33 C24        12.2192   -2.9422   -8.0237 C.3       1 <0>         0.0451
     34 C25        12.5241   -2.5038   -6.5913 C.3       1 <0>         0.0866
     35 Cl2         3.6603    2.2145   -0.6453 Cl        1 <0>        -0.0463
     36 H1         -1.1103    1.6206   -0.0582 H         1 <0>         0.1461
     37 H2          0.9114    2.9424   -0.5212 H         1 <0>         0.1450
     38 H3         -0.9391   -0.7899    0.3990 H         1 <0>         0.1436
     39 H4          3.8971   -0.5431   -2.1478 H         1 <0>         0.1515
     40 H5          6.0000   -1.4034   -3.3342 H         1 <0>         0.1770
     41 H6          4.9136   -0.9747    4.1281 H         1 <0>         0.1263
     42 H7          4.1249   -2.5659    3.8935 H         1 <0>         0.1249
     43 H8          5.9153   -3.2831    2.6382 H         1 <0>         0.0972
     44 H9          6.7033   -1.6934    2.8811 H         1 <0>         0.0957
     45 H10         9.5984   -3.7480   -0.2569 H         1 <0>         0.4212
     46 H11         9.5232   -1.4757   -2.9168 H         1 <0>         0.1291
     47 H12        10.8938   -1.6084   -4.9562 H         1 <0>         0.1248
     48 H13        12.1234   -5.5579   -3.8728 H         1 <0>         0.1255
     49 H14        10.7596   -5.4218   -1.8291 H         1 <0>         0.1242
     50 H15        14.1397   -4.7844   -5.9628 H         1 <0>         0.0702
     51 H16        12.7229   -5.7255   -5.4295 H         1 <0>         0.0922
     52 H17        13.3343   -6.0769   -7.8687 H         1 <0>         0.1047
     53 H18        11.6712   -5.4924   -7.6157 H         1 <0>         0.0560
     54 H19        12.4604   -2.1328   -8.7127 H         1 <0>         0.1051
     55 H20        11.1611   -3.1902   -8.1084 H         1 <0>         0.0559
     56 H21        11.8274   -1.7208   -6.2920 H         1 <0>         0.0933
     57 H22        13.5457   -2.1280   -6.5350 H         1 <0>         0.0701
@<TRIPOS>BOND
     1    1    6 ar
     2    1    2 ar
     3    1   36 1
     4    2    3 ar
     5    2   37 1
     6    3    4 ar
     7    3   35 1
     8    4    5 ar
     9    4    8 1
    10    5    6 ar
    11    5    7 1
    12    6   38 1
    13    8   17 1
    14    8    9 2
    15    9   10 1
    16    9   39 1
    17   10   15 ar
    18   10   11 ar
    19   11   12 ar
    20   11   40 1
    21   12   13 ar
    22   13   14 ar
    23   13   22 1
    24   14   15 ar
    25   15   16 1
    26   16   21 1
    27   16   17 1
    28   17   18 am
    29   18   19 2
    30   18   20 1
    31   20   21 1
    32   20   41 1
    33   20   42 1
    34   21   43 1
    35   21   44 1
    36   22   23 1
    37   22   45 1
    38   23   28 ar
    39   23   24 ar
    40   24   25 ar
    41   24   46 1
    42   25   26 ar
    43   25   47 1
    44   26   27 ar
    45   26   29 1
    46   27   28 ar
    47   27   48 1
    48   28   49 1
    49   29   34 1
    50   29   30 1
    51   30   31 1
    52   30   50 1
    53   30   51 1
    54   31   32 1
    55   31   52 1
    56   31   53 1
    57   32   33 1
    58   33   34 1
    59   33   54 1
    60   33   55 1
    61   34   56 1
    62   34   57 1
@<TRIPOS>MOLECULE
CHEMBL308432
   59    62     0     0     0
SMALL
USER_CHARGES

@<TRIPOS>ATOM
      1 C1          1.9021    0.5109    0.8717 C.3       1 <0>        -0.1166
      2 C2          2.6627   -0.7867    0.9655 C.ar      1 <0>        -0.0847
      3 C3          2.9258   -1.5180   -0.1767 C.ar      1 <0>        -0.1050
      4 C4          3.6239   -2.7083   -0.0923 C.ar      1 <0>        -0.1051
      5 C5          4.0614   -3.1716    1.1353 C.ar      1 <0>        -0.1062
      6 C6          3.8017   -2.4452    2.2818 C.ar      1 <0>        -0.0238
      7 C7          3.1046   -1.2454    2.1990 C.ar      1 <0>         0.1422
      8 N1          2.8442   -0.5044    3.3569 N.am      1 <0>        -0.6701
      9 C8          2.2656   -1.0969    4.4202 C.2       1 <0>         0.5585
     10 O1          2.0590   -2.2953    4.4107 O.2       1 <0>        -0.4931
     11 C9          1.8831   -0.2920    5.5951 C.ar      1 <0>        -0.1172
     12 C10         2.1112    1.0912    5.6148 C.ar      1 <0>        -0.0728
     13 C11         1.7675    1.8499    6.6843 C.ar      1 <0>        -0.0689
     14 C12         1.1616    1.2709    7.8272 C.ar      1 <0>         0.1316
     15 C13         0.9412   -0.1276    7.7832 C.ar      1 <0>        -0.1638
     16 C14         1.2819   -0.8962    6.7044 C.ar      1 <0>         0.0105
     17 S1          0.1885   -0.4419    9.3617 S.3       1 <0>         0.0420
     18 C15         0.2125    1.2421    9.9600 C.2       1 <0>         0.3850
     19 N2          0.7668    1.8875    8.9580 N.2       1 <0>        -0.5078
     20 N3         -0.2383    1.7398   11.1695 N.am      1 <0>        -0.6221
     21 C16        -0.1314    3.0561   11.4385 C.2       1 <0>         0.7020
     22 O2          0.3611    3.8061   10.6183 O.2       1 <0>        -0.5139
     23 N4         -0.5706    3.5410   12.6169 N.am      1 <0>        -0.7415
     24 C17        -0.4544    4.9718   12.9092 C.3       1 <0>         0.1409
     25 C18        -1.0228    5.2557   14.3011 C.3       1 <0>        -0.1571
     26 C19        -1.0210    6.7645   14.5547 C.3       1 <0>         0.0265
     27 C20         0.4307    7.2775   14.6592 C.3       1 <0>        -0.1404
     28 C21         0.3457    8.3396   15.7869 C.3       1 <0>        -0.1438
     29 C22        -0.7000    7.7044   16.7368 C.3       1 <0>        -0.0106
     30 N5         -1.6815    7.0580   15.8398 N.4       1 <0>        -0.3886
     31 C23        -2.1584    5.8083   16.4472 C.3       1 <0>        -0.0544
     32 Cl1         4.3505   -3.0273    3.8225 Cl        1 <0>        -0.0456
     33 H1          2.6024    1.3326    0.7217 H         1 <0>         0.0760
     34 H2          1.2093    0.4660    0.0314 H         1 <0>         0.0756
     35 H3          1.3443    0.6727    1.7941 H         1 <0>         0.0673
     36 H4          2.5854   -1.1594   -1.1369 H         1 <0>         0.1346
     37 H5          3.8278   -3.2780   -0.9869 H         1 <0>         0.1361
     38 H6          4.6062   -4.1020    1.1979 H         1 <0>         0.1376
     39 H7          3.0802    0.4357    3.3943 H         1 <0>         0.4110
     40 H8          2.5713    1.5627    4.7590 H         1 <0>         0.1378
     41 H9          1.9587    2.9127    6.6652 H         1 <0>         0.1425
     42 H10         1.0922   -1.9594    6.7104 H         1 <0>         0.1507
     43 H11        -0.6313    1.1414   11.8240 H         1 <0>         0.4277
     44 H12        -0.9636    2.9426   13.2713 H         1 <0>         0.4014
     45 H13         0.5950    5.2649   12.8786 H         1 <0>         0.0826
     46 H14        -1.0125    5.5410   12.1658 H         1 <0>         0.0807
     47 H15        -2.0437    4.8785   14.3605 H         1 <0>         0.0991
     48 H16        -0.4081    4.7602   15.0526 H         1 <0>         0.0986
     49 H17        -1.5406    7.2771   13.7451 H         1 <0>         0.1447
     50 H18         1.1057    6.4694   14.9410 H         1 <0>         0.1017
     51 H19         0.7461    7.7353   13.7216 H         1 <0>         0.1169
     52 H20         1.3073    8.4562   16.2867 H         1 <0>         0.1184
     53 H21        -0.0089    9.2943   15.3982 H         1 <0>         0.1003
     54 H22        -0.2271    6.9620   17.3798 H         1 <0>         0.1325
     55 H23        -1.1844    8.4744   17.3374 H         1 <0>         0.1364
     56 H24        -1.3213    5.1208   16.5685 H         1 <0>         0.1249
     57 H25        -2.5969    6.0223   17.4219 H         1 <0>         0.1239
     58 H26        -2.9107    5.3547   15.8020 H         1 <0>         0.1252
     59 H27        -2.4619    7.6790   15.6865 H         1 <0>         0.4298
@<TRIPOS>BOND
     1    1    2 1
     2    1   33 1
     3    1   34 1
     4    1   35 1
     5    2    7 ar
     6    2    3 ar
     7    3    4 ar
     8    3   36 1
     9    4    5 ar
    10    4   37 1
    11    5    6 ar
    12    5   38 1
    13    6    7 ar
    14    6   32 1
    15    7    8 1
    16    8    9 am
    17    8   39 1
    18    9   10 2
    19    9   11 1
    20   11   16 ar
    21   11   12 ar
    22   12   13 ar
    23   12   40 1
    24   13   14 ar
    25   13   41 1
    26   14   19 1
    27   14   15 ar
    28   15   16 ar
    29   15   17 1
    30   16   42 1
    31   17   18 1
    32   18   19 2
    33   18   20 1
    34   20   21 am
    35   20   43 1
    36   21   22 2
    37   21   23 am
    38   23   24 1
    39   23   44 1
    40   24   25 1
    41   24   45 1
    42   24   46 1
    43   25   26 1
    44   25   47 1
    45   25   48 1
    46   26   30 1
    47   26   27 1
    48   26   49 1
    49   27   28 1
    50   27   50 1
    51   27   51 1
    52   28   29 1
    53   28   52 1
    54   28   53 1
    55   29   30 1
    56   29   54 1
    57   29   55 1
    58   30   31 1
    59   30   59 1
    60   31   56 1
    61   31   57 1
    62   31   58 1
@<TRIPOS>MOLECULE
CHEMBL308432__1
   59    62     0     0     0
SMALL
USER_CHARGES

@<TRIPOS>ATOM
      1 C1         -2.3215    0.0989    0.8112 C.3       1 <0>        -0.1143
      2 C2         -1.1015   -0.6767    0.3857 C.ar      1 <0>        -0.0627
      3 C3         -1.0985   -1.3553   -0.8177 C.ar      1 <0>        -0.1107
      4 C4          0.0202   -2.0668   -1.2095 C.ar      1 <0>        -0.0927
      5 C5          1.1403   -2.1021   -0.3989 C.ar      1 <0>        -0.1122
      6 C6          1.1442   -1.4256    0.8060 C.ar      1 <0>        -0.0208
      7 C7          0.0226   -0.7051    1.2000 C.ar      1 <0>         0.1356
      8 N1          0.0246   -0.0145    2.4167 N.am      1 <0>        -0.6770
      9 C8         -0.3554   -0.6412    3.5478 C.2       1 <0>         0.5699
     10 O1         -0.6123   -1.8297    3.5276 O.2       1 <0>        -0.5088
     11 C9         -0.4597    0.1144    4.8099 C.ar      1 <0>        -0.1194
     12 C10        -0.1717    1.4861    4.8439 C.ar      1 <0>        -0.0708
     13 C11        -0.2611    2.1998    5.9929 C.ar      1 <0>        -0.0694
     14 C12        -0.6513    1.5834    7.2081 C.ar      1 <0>         0.1313
     15 C13        -0.9374    0.1974    7.1480 C.ar      1 <0>        -0.1641
     16 C14        -0.8532   -0.5255    5.9900 C.ar      1 <0>         0.0109
     17 S1         -1.3727   -0.1723    8.8306 S.3       1 <0>         0.0461
     18 C15        -1.1555    1.4767    9.4851 C.2       1 <0>         0.3831
     19 N2         -0.7847    2.1538    8.4212 N.2       1 <0>        -0.5081
     20 N3         -1.3333    1.9262   10.7813 N.am      1 <0>        -0.6211
     21 C16        -1.1170    3.2223   11.0807 C.2       1 <0>         0.7031
     22 O2         -0.7657    3.9965   10.2117 O.2       1 <0>        -0.5183
     23 N4         -1.2902    3.6602   12.3435 N.am      1 <0>        -0.7403
     24 C17        -1.0551    5.0691   12.6690 C.3       1 <0>         0.1235
     25 C18        -1.3209    5.2999   14.1579 C.3       1 <0>        -0.1556
     26 C19        -1.0754    6.7713   14.4978 C.3       1 <0>         0.0300
     27 C20        -1.3479    7.0304   16.0005 C.3       1 <0>        -0.1371
     28 C21        -0.4821    8.2907   16.2633 C.3       1 <0>        -0.1418
     29 C22         0.7517    8.0580   15.3661 C.3       1 <0>        -0.0132
     30 N5          0.3507    7.1123   14.3084 N.4       1 <0>        -0.3924
     31 C23         0.5394    7.7347   12.9912 C.3       1 <0>        -0.0565
     32 Cl1         2.5501   -1.4706    1.8235 Cl        1 <0>        -0.0581
     33 H1         -2.2505    1.1209    0.4389 H         1 <0>         0.0771
     34 H2         -3.2141   -0.3753    0.4031 H         1 <0>         0.0745
     35 H3         -2.3824    0.1121    1.8994 H         1 <0>         0.0660
     36 H4         -1.9715   -1.3302   -1.4530 H         1 <0>         0.1357
     37 H5          0.0194   -2.5966   -2.1506 H         1 <0>         0.1381
     38 H6          2.0125   -2.6591   -0.7078 H         1 <0>         0.1391
     39 H7          0.2995    0.9152    2.4462 H         1 <0>         0.4099
     40 H8          0.1285    1.9853    3.9344 H         1 <0>         0.1388
     41 H9         -0.0310    3.2549    5.9823 H         1 <0>         0.1420
     42 H10        -1.0844   -1.5804    5.9875 H         1 <0>         0.1509
     43 H11        -1.6136    1.3085   11.4747 H         1 <0>         0.4291
     44 H12        -1.5705    3.0425   13.0369 H         1 <0>         0.4057
     45 H13        -0.0211    5.3273   12.4402 H         1 <0>         0.0668
     46 H14        -1.7248    5.6949   12.0791 H         1 <0>         0.0851
     47 H15        -2.3549    5.0418   14.3867 H         1 <0>         0.1236
     48 H16        -0.6512    4.6741   14.7478 H         1 <0>         0.0987
     49 H17        -1.7042    7.4127   13.8803 H         1 <0>         0.1471
     50 H18        -2.4034    7.2384   16.1758 H         1 <0>         0.1192
     51 H19        -1.0106    6.1912   16.6089 H         1 <0>         0.1011
     52 H20        -1.0136    9.1931   15.9612 H         1 <0>         0.1002
     53 H21        -0.1909    8.3464   17.3122 H         1 <0>         0.1144
     54 H22         1.0688    9.0006   14.9200 H         1 <0>         0.1338
     55 H23         1.5639    7.6325   15.9555 H         1 <0>         0.1321
     56 H24        -0.0608    8.6424   12.9289 H         1 <0>         0.1255
     57 H25         1.5916    7.9847   12.8549 H         1 <0>         0.1264
     58 H26         0.2275    7.0387   12.2125 H         1 <0>         0.1263
     59 H27         0.9111    6.2755   14.3707 H         1 <0>         0.4243
@<TRIPOS>BOND
     1    1    2 1
     2    1   33 1
     3    1   34 1
     4    1   35 1
     5    2    7 ar
     6    2    3 ar
     7    3    4 ar
     8    3   36 1
     9    4    5 ar
    10    4   37 1
    11    5    6 ar
    12    5   38 1
    13    6    7 ar
    14    6   32 1
    15    7    8 1
    16    8    9 am
    17    8   39 1
    18    9   10 2
    19    9   11 1
    20   11   16 ar
    21   11   12 ar
    22   12   13 ar
    23   12   40 1
    24   13   14 ar
    25   13   41 1
    26   14   19 1
    27   14   15 ar
    28   15   16 ar
    29   15   17 1
    30   16   42 1
    31   17   18 1
    32   18   19 2
    33   18   20 1
    34   20   21 am
    35   20   43 1
    36   21   22 2
    37   21   23 am
    38   23   24 1
    39   23   44 1
    40   24   25 1
    41   24   45 1
    42   24   46 1
    43   25   26 1
    44   25   47 1
    45   25   48 1
    46   26   30 1
    47   26   27 1
    48   26   49 1
    49   27   28 1
    50   27   50 1
    51   27   51 1
    52   28   29 1
    53   28   52 1
    54   28   53 1
    55   29   30 1
    56   29   54 1
    57   29   55 1
    58   30   31 1
    59   30   59 1
    60   31   56 1
    61   31   57 1
    62   31   58 1
@<TRIPOS>MOLECULE
CHEMBL463323
   59    64     0     0     0
SMALL
USER_CHARGES

@<TRIPOS>ATOM
      1 C1         -4.3572   -3.5939   -4.7715 C.3       1 <0>         0.1071
      2 N1         -3.4305   -3.7667   -3.6501 N.pl3     1 <0>        -0.7026
      3 C2         -2.1579   -3.2261   -3.7143 C.ar      1 <0>         0.5676
      4 N2         -1.7971   -2.5507   -4.7961 N.ar      1 <0>        -0.5723
      5 C3         -0.5892   -2.0185   -4.8961 C.ar      1 <0>         0.1950
      6 C4          0.3065   -2.1720   -3.8534 C.ar      1 <0>        -0.2865
      7 C5         -0.1018   -2.8892   -2.7250 C.ar      1 <0>         0.2687
      8 N3         -1.3345   -3.3923   -2.6915 N.ar      1 <0>        -0.5426
      9 C6          0.8204   -3.0815   -1.5816 C.ar      1 <0>        -0.1308
     10 C7          2.1095   -2.5447   -1.6106 C.ar      1 <0>        -0.0132
     11 C8          2.9333   -2.7517   -0.5169 C.ar      1 <0>        -0.2123
     12 C9          2.4612   -3.4765    0.5617 C.ar      1 <0>         0.1597
     13 N4          1.2397   -3.9745    0.5664 N.ar      1 <0>        -0.5279
     14 C10         0.4126   -3.7999   -0.4504 C.ar      1 <0>         0.3546
     15 O1         -0.8361   -4.3242   -0.4001 O.3       1 <0>        -0.1994
     16 C11        -1.1593   -5.1014    0.6670 C.ar      1 <0>         0.0725
     17 C12        -1.0908   -6.4724    0.5692 C.ar      1 <0>        -0.0749
     18 C13        -1.4182   -7.2827    1.6520 C.ar      1 <0>        -0.1510
     19 C14        -1.8198   -6.7322    2.8497 C.ar      1 <0>         0.1797
     20 C15        -1.9001   -5.3299    2.9814 C.ar      1 <0>        -0.0589
     21 C16        -1.5604   -4.5063    1.8800 C.ar      1 <0>        -0.0206
     22 C17        -1.6359   -3.1102    2.0150 C.ar      1 <0>        -0.0890
     23 C18        -2.0275   -2.5679    3.2007 C.ar      1 <0>        -0.1125
     24 C19        -2.3557   -3.3782    4.2858 C.ar      1 <0>        -0.1091
     25 C20        -2.3054   -4.7352    4.1871 C.ar      1 <0>        -0.1129
     26 N5         -2.1463   -7.5588    3.9281 N.pl3     1 <0>        -0.6294
     27 C21        -1.9036   -8.9151    3.8559 C.2       1 <0>         0.5426
     28 N6         -1.2637   -9.5145    2.8827 N.2       1 <0>        -0.5143
     29 C22        -1.2048  -10.8493    3.1295 C.ar      1 <0>         0.0727
     30 C23        -0.6523  -11.9299    2.4372 C.ar      1 <0>        -0.0192
     31 C24        -0.7572  -13.2006    2.9567 C.ar      1 <0>        -0.1816
     32 C25        -1.4076  -13.4165    4.1627 C.ar      1 <0>        -0.0686
     33 C26        -1.9589  -12.3603    4.8584 C.ar      1 <0>        -0.0993
     34 C27        -1.8622  -11.0737    4.3503 C.ar      1 <0>         0.0744
     35 N7         -2.2897   -9.8323    4.7915 N.pl3     1 <0>        -0.6137
     36 C28        -0.1615  -14.3657    2.2093 C.3       1 <0>         0.5131
     37 F1          1.1615  -14.5571    2.6218 F         1 <0>        -0.1753
     38 F2         -0.9049  -15.5203    2.4764 F         1 <0>        -0.1757
     39 F3         -0.1881  -14.1013    0.8358 F         1 <0>        -0.1756
     40 H1         -4.5307   -2.5310   -4.9390 H         1 <0>         0.0586
     41 H2         -3.9275   -4.0378   -5.6695 H         1 <0>         0.0588
     42 H3         -5.3027   -4.0845   -4.5404 H         1 <0>         0.0751
     43 H4         -3.7087   -4.2599   -2.8625 H         1 <0>         0.4158
     44 H5         -0.3060   -1.4704   -5.7826 H         1 <0>         0.1687
     45 H6          1.2982   -1.7480   -3.9098 H         1 <0>         0.1435
     46 H7          2.4554   -1.9822   -2.4652 H         1 <0>         0.1492
     47 H8          3.9361   -2.3507   -0.5067 H         1 <0>         0.1452
     48 H9          3.1035   -3.6381    1.4147 H         1 <0>         0.1633
     49 H10        -0.7791   -6.9254   -0.3604 H         1 <0>         0.1319
     50 H11        -1.3571   -8.3563    1.5524 H         1 <0>         0.1873
     51 H12        -1.3841   -2.4701    1.1824 H         1 <0>         0.1220
     52 H13        -2.0844   -1.4942    3.3018 H         1 <0>         0.1240
     53 H14        -2.6632   -2.9233    5.2159 H         1 <0>         0.1251
     54 H15        -2.5634   -5.3510    5.0360 H         1 <0>         0.1186
     55 H16        -2.5435   -7.1790    4.7274 H         1 <0>         0.4207
     56 H17        -0.1449  -11.7690    1.4974 H         1 <0>         0.1455
     57 H18        -1.4832  -14.4181    4.5597 H         1 <0>         0.1447
     58 H19        -2.4645  -12.5352    5.7965 H         1 <0>         0.1366
     59 H20        -2.7747   -9.6488    5.6113 H         1 <0>         0.4266
@<TRIPOS>BOND
     1    1    2 1
     2    1   40 1
     3    1   41 1
     4    1   42 1
     5    2    3 1
     6    2   43 1
     7    3    8 ar
     8    3    4 ar
     9    4    5 ar
    10    5    6 ar
    11    5   44 1
    12    6    7 ar
    13    6   45 1
    14    7    8 ar
    15    7    9 1
    16    9   14 ar
    17    9   10 ar
    18   10   11 ar
    19   10   46 1
    20   11   12 ar
    21   11   47 1
    22   12   13 ar
    23   12   48 1
    24   13   14 ar
    25   14   15 1
    26   15   16 1
    27   16   21 ar
    28   16   17 ar
    29   17   18 ar
    30   17   49 1
    31   18   19 ar
    32   18   50 1
    33   19   20 ar
    34   19   26 1
    35   20   25 ar
    36   20   21 ar
    37   21   22 ar
    38   22   23 ar
    39   22   51 1
    40   23   24 ar
    41   23   52 1
    42   24   25 ar
    43   24   53 1
    44   25   54 1
    45   26   27 1
    46   26   55 1
    47   27   35 1
    48   27   28 2
    49   28   29 1
    50   29   34 ar
    51   29   30 ar
    52   30   31 ar
    53   30   56 1
    54   31   32 ar
    55   31   36 1
    56   32   33 ar
    57   32   57 1
    58   33   34 ar
    59   33   58 1
    60   34   35 1
    61   35   59 1
    62   36   37 1
    63   36   38 1
    64   36   39 1
@<TRIPOS>MOLECULE
CHEMBL463323__1
   59    64     0     0     0
SMALL
USER_CHARGES

@<TRIPOS>ATOM
      1 C1         -4.3812   -3.5185   -4.7319 C.3       1 <0>         0.1071
      2 N1         -3.4468   -3.7108   -3.6201 N.pl3     1 <0>        -0.7026
      3 C2         -2.1697   -3.1817   -3.6899 C.ar      1 <0>         0.5676
      4 N2         -1.8116   -2.4993   -4.7683 N.ar      1 <0>        -0.5723
      5 C3         -0.5997   -1.9771   -4.8732 C.ar      1 <0>         0.1950
      6 C4          0.3031   -2.1489   -3.8395 C.ar      1 <0>        -0.2865
      7 C5         -0.1025   -2.8731   -2.7146 C.ar      1 <0>         0.2687
      8 N3         -1.3393   -3.3656   -2.6759 N.ar      1 <0>        -0.5427
      9 C6          0.8273   -3.0848   -1.5808 C.ar      1 <0>        -0.1307
     10 C7          2.1209   -2.5595   -1.6154 C.ar      1 <0>        -0.0132
     11 C8          2.9518   -2.7846   -0.5306 C.ar      1 <0>        -0.2121
     12 C9          2.4819   -3.5154    0.5449 C.ar      1 <0>         0.1597
     13 N4          1.2559   -4.0022    0.5550 N.ar      1 <0>        -0.5279
     14 C10         0.4222   -3.8103   -0.4532 C.ar      1 <0>         0.3547
     15 O1         -0.8307   -4.3240   -0.3976 O.3       1 <0>        -0.1996
     16 C11        -1.1550   -5.1012    0.6691 C.ar      1 <0>         0.0736
     17 C12        -1.1012   -6.4726    0.5665 C.ar      1 <0>        -0.0756
     18 C13        -1.4295   -7.2828    1.6491 C.ar      1 <0>        -0.1489
     19 C14        -1.8167   -6.7320    2.8514 C.ar      1 <0>         0.1785
     20 C15        -1.8816   -5.3295    2.9880 C.ar      1 <0>        -0.0582
     21 C16        -1.5420   -4.5059    1.8866 C.ar      1 <0>        -0.0211
     22 C17        -1.6026   -3.1095    2.0263 C.ar      1 <0>        -0.0891
     23 C18        -1.9808   -2.5670    3.2162 C.ar      1 <0>        -0.1124
     24 C19        -2.3098   -3.3773    4.3011 C.ar      1 <0>        -0.1086
     25 C20        -2.2721   -4.7344    4.1984 C.ar      1 <0>        -0.1132
     26 N5         -2.1437   -7.5586    3.9297 N.pl3     1 <0>        -0.6290
     27 C21        -1.9002   -8.9149    3.8580 C.2       1 <0>         0.5507
     28 N6         -2.2906   -9.8327    4.7912 N.pl3     1 <0>        -0.6127
     29 H1         -2.7799   -9.6497    5.6085 H         1 <0>         0.4265
     30 C22        -1.8580  -11.0733    4.3528 C.ar      1 <0>         0.0407
     31 C23        -1.9533  -12.3596    4.8617 C.ar      1 <0>        -0.0454
     32 C24        -1.4023  -13.4159    4.1659 C.ar      1 <0>        -0.1785
     33 C25        -0.7526  -13.2001    2.9596 C.ar      1 <0>        -0.0738
     34 C26        -0.6486  -11.9296    2.4394 C.ar      1 <0>        -0.0744
     35 C27        -1.2016  -10.8490    3.1314 C.ar      1 <0>         0.1072
     36 N7         -1.2652   -9.5150    2.8820 N.2       1 <0>        -0.5216
     37 C28        -1.5068  -14.8133    4.7204 C.3       1 <0>         0.5138
     38 F1         -2.6779  -15.4159    4.2486 F         1 <0>        -0.1755
     39 F2         -0.3988  -15.5621    4.3094 F         1 <0>        -0.1741
     40 F3         -1.5405  -14.7592    6.1179 F         1 <0>        -0.1784
     41 H2         -4.5460   -2.4524   -4.8877 H         1 <0>         0.0586
     42 H3         -3.9633   -3.9577   -5.6378 H         1 <0>         0.0588
     43 H4         -5.3293   -4.0023   -4.4975 H         1 <0>         0.0752
     44 H5         -3.7231   -4.2090   -2.8350 H         1 <0>         0.4158
     45 H6         -0.3187   -1.4232   -5.7567 H         1 <0>         0.1687
     46 H7          1.2981   -1.7335   -3.9001 H         1 <0>         0.1435
     47 H8          2.4650   -1.9921   -2.4674 H         1 <0>         0.1492
     48 H9          3.9582   -2.3929   -0.5249 H         1 <0>         0.1452
     49 H10         3.1297   -3.6910    1.3910 H         1 <0>         0.1634
     50 H11        -0.8007   -6.9258   -0.3666 H         1 <0>         0.1321
     51 H12        -1.3805   -8.3567    1.5457 H         1 <0>         0.1869
     52 H13        -1.3500   -2.4694    1.1939 H         1 <0>         0.1221
     53 H14        -2.0262   -1.4931    3.3209 H         1 <0>         0.1241
     54 H15        -2.6068   -2.9222    5.2344 H         1 <0>         0.1252
     55 H16        -2.5298   -5.3501    5.0474 H         1 <0>         0.1188
     56 H17        -2.5419   -7.1789    4.7285 H         1 <0>         0.4211
     57 H18        -2.4573  -12.5342    5.8008 H         1 <0>         0.1371
     58 H19        -0.3247  -14.0350    2.4245 H         1 <0>         0.1442
     59 H20        -0.1416  -11.7688    1.4995 H         1 <0>         0.1444
@<TRIPOS>BOND
     1    1    2 1
     2    1   41 1
     3    1   42 1
     4    1   43 1
     5    2    3 1
     6    2   44 1
     7    3    8 ar
     8    3    4 ar
     9    4    5 ar
    10    5    6 ar
    11    5   45 1
    12    6    7 ar
    13    6   46 1
    14    7    8 ar
    15    7    9 1
    16    9   14 ar
    17    9   10 ar
    18   10   11 ar
    19   10   47 1
    20   11   12 ar
    21   11   48 1
    22   12   13 ar
    23   12   49 1
    24   13   14 ar
    25   14   15 1
    26   15   16 1
    27   16   21 ar
    28   16   17 ar
    29   17   18 ar
    30   17   50 1
    31   18   19 ar
    32   18   51 1
    33   19   20 ar
    34   19   26 1
    35   20   25 ar
    36   20   21 ar
    37   21   22 ar
    38   22   23 ar
    39   22   52 1
    40   23   24 ar
    41   23   53 1
    42   24   25 ar
    43   24   54 1
    44   25   55 1
    45   26   27 1
    46   26   56 1
    47   27   36 2
    48   27   28 1
    49   28   29 1
    50   28   30 1
    51   30   35 ar
    52   30   31 ar
    53   31   32 ar
    54   31   57 1
    55   32   33 ar
    56   32   37 1
    57   33   34 ar
    58   33   58 1
    59   34   35 ar
    60   34   59 1
    61   35   36 1
    62   37   38 1
    63   37   39 1
    64   37   40 1
@<TRIPOS>MOLECULE
CHEMBL407516
   78    84     0     0     0
SMALL
USER_CHARGES

@<TRIPOS>ATOM
      1 C1         -1.0876    2.0603    1.1050 C.3       1 <0>        -0.1157
      2 C2         -1.3516    0.5769    1.0804 C.ar      1 <0>        -0.0495
      3 C3         -1.5419   -0.0715   -0.1242 C.ar      1 <0>        -0.1187
      4 C4         -1.7843   -1.4327   -0.1476 C.ar      1 <0>        -0.0886
      5 C5         -1.8369   -2.1491    1.0341 C.ar      1 <0>        -0.1188
      6 C6         -1.6478   -1.5065    2.2419 C.ar      1 <0>        -0.0496
      7 C7         -1.3981   -0.1407    2.2684 C.ar      1 <0>         0.1136
      8 N1         -1.1994    0.5126    3.4909 N.am      1 <0>        -0.4629
      9 C8          0.0499    0.6214    3.9873 C.2       1 <0>         0.5881
     10 O1          0.9999    0.1589    3.3844 O.2       1 <0>        -0.4766
     11 C9          0.2398    1.3099    5.2699 C.ar      1 <0>        -0.3304
     12 C10         1.4977    1.4656    5.8516 C.ar      1 <0>         0.2962
     13 N2          1.5814    2.0993    7.0093 N.ar      1 <0>        -0.5675
     14 C11         0.4980    2.5786    7.6094 C.ar      1 <0>         0.6167
     15 N3         -0.7168    2.4520    7.0912 N.ar      1 <0>        -0.5788
     16 C12        -0.8884    1.8312    5.9345 C.ar      1 <0>         0.4906
     17 N4         -2.1382    1.6815    5.3635 N.pl3     1 <0>        -0.4380
     18 C13        -2.2878    1.0392    4.1638 C.2       1 <0>         0.5180
     19 N5         -3.5606    1.0313    3.8309 N.2       1 <0>        -0.4644
     20 C14        -4.2924    1.6639    4.7823 C.ar      1 <0>         0.0826
     21 C15        -3.3985    2.0830    5.7810 C.ar      1 <0>         0.0495
     22 C16        -3.8708    2.7644    6.8920 C.ar      1 <0>        -0.0818
     23 C17        -5.2215    3.0168    7.0196 C.ar      1 <0>        -0.1033
     24 C18        -6.1106    2.5929    6.0436 C.ar      1 <0>        -0.1041
     25 C19        -5.6564    1.9330    4.9234 C.ar      1 <0>        -0.0681
     26 N6          0.6409    3.2321    8.8169 N.pl3     1 <0>        -0.6201
     27 C20         1.9194    3.4907    9.3260 C.ar      1 <0>         0.1527
     28 C21         2.9549    3.8282    8.4644 C.ar      1 <0>        -0.0731
     29 C22         4.2161    4.0838    8.9664 C.ar      1 <0>        -0.1624
     30 C23         4.4495    4.0036   10.3307 C.ar      1 <0>         0.0859
     31 C24         3.4151    3.6661   11.1940 C.ar      1 <0>         0.0940
     32 C25         2.1510    3.4152   10.6929 C.ar      1 <0>        -0.1363
     33 F1          3.6429    3.5875   12.5234 F         1 <0>        -0.1269
     34 O2          5.6922    4.2551   10.8239 O.3       1 <0>        -0.2929
     35 C26         6.7085    4.5959    9.8789 C.3       1 <0>         0.0602
     36 C27         8.0273    4.8415   10.6146 C.3       1 <0>         0.0564
     37 N7          8.4625    3.5996   11.2674 N.3       1 <0>        -0.5336
     38 C28         9.4631    3.8743   12.3083 C.3       1 <0>         0.0270
     39 C29         9.8452    2.5652   13.0026 C.3       1 <0>        -0.0028
     40 N8         10.3886    1.6261   12.0124 N.4       1 <0>        -0.3880
     41 C30         9.3697    1.3425   10.9932 C.3       1 <0>        -0.0022
     42 C31         8.9837    2.6414   10.2823 C.3       1 <0>         0.0207
     43 C32        10.7720    0.3762   12.6823 C.3       1 <0>        -0.0459
     44 C33        -1.7063   -2.2878    3.5292 C.3       1 <0>        -0.1156
     45 H1         -0.0142    2.2394    1.0426 H         1 <0>         0.0753
     46 H2         -1.5845    2.5320    0.2572 H         1 <0>         0.0778
     47 H3         -1.4731    2.4826    2.0330 H         1 <0>         0.0556
     48 H4         -1.5018    0.4853   -1.0487 H         1 <0>         0.1328
     49 H5         -1.9332   -1.9374   -1.0908 H         1 <0>         0.1323
     50 H6         -2.0264   -3.2121    1.0124 H         1 <0>         0.1327
     51 H7          2.3822    1.0776    5.3683 H         1 <0>         0.1995
     52 H8         -3.1834    3.0965    7.6559 H         1 <0>         0.1354
     53 H9         -5.5885    3.5478    7.8856 H         1 <0>         0.1382
     54 H10        -7.1655    2.7958    6.1550 H         1 <0>         0.1394
     55 H11        -6.3540    1.6083    4.1655 H         1 <0>         0.1402
     56 H12        -0.1443    3.5122    9.3127 H         1 <0>         0.4318
     57 H13         2.7741    3.8906    7.4015 H         1 <0>         0.1426
     58 H14         5.0210    4.3460    8.2957 H         1 <0>         0.1411
     59 H15         1.3452    3.1567   11.3640 H         1 <0>         0.1493
     60 H16         6.8348    3.7775    9.1701 H         1 <0>         0.0656
     61 H17         6.4178    5.4993    9.3427 H         1 <0>         0.0779
     62 H18         8.7867    5.1627    9.9017 H         1 <0>         0.0733
     63 H19         7.8845    5.6168   11.3673 H         1 <0>         0.1011
     64 H20        10.3493    4.3167   11.8532 H         1 <0>         0.0609
     65 H21         9.0460    4.5659   13.0402 H         1 <0>         0.1253
     66 H22        10.5977    2.7647   13.7654 H         1 <0>         0.1365
     67 H23         8.9614    2.1301   13.4692 H         1 <0>         0.1388
     68 H24         9.7697    0.6355   10.2664 H         1 <0>         0.1361
     69 H25         8.4883    0.9136   11.4701 H         1 <0>         0.1384
     70 H26         8.2167    2.4335    9.5361 H         1 <0>         0.1219
     71 H27         9.8619    3.0635    9.7938 H         1 <0>         0.0621
     72 H28         9.8960   -0.0643   13.1585 H         1 <0>         0.1234
     73 H29        11.1753   -0.3208   11.9477 H         1 <0>         0.1242
     74 H30        11.5291    0.5863   13.4378 H         1 <0>         0.1246
     75 H31        -0.7105   -2.6552    3.7768 H         1 <0>         0.0750
     76 H32        -2.0647   -1.6415    4.3304 H         1 <0>         0.0557
     77 H33        -2.3861   -3.1316    3.4115 H         1 <0>         0.0777
     78 H34        11.1999    2.0339   11.5723 H         1 <0>         0.4219
@<TRIPOS>BOND
     1    1    2 1
     2    1   45 1
     3    1   46 1
     4    1   47 1
     5    2    7 ar
     6    2    3 ar
     7    3    4 ar
     8    3   48 1
     9    4    5 ar
    10    4   49 1
    11    5    6 ar
    12    5   50 1
    13    6    7 ar
    14    6   44 1
    15    7    8 1
    16    8   18 1
    17    8    9 am
    18    9   10 2
    19    9   11 1
    20   11   16 ar
    21   11   12 ar
    22   12   13 ar
    23   12   51 1
    24   13   14 ar
    25   14   15 ar
    26   14   26 1
    27   15   16 ar
    28   16   17 1
    29   17   21 1
    30   17   18 1
    31   18   19 2
    32   19   20 1
    33   20   25 ar
    34   20   21 ar
    35   21   22 ar
    36   22   23 ar
    37   22   52 1
    38   23   24 ar
    39   23   53 1
    40   24   25 ar
    41   24   54 1
    42   25   55 1
    43   26   27 1
    44   26   56 1
    45   27   32 ar
    46   27   28 ar
    47   28   29 ar
    48   28   57 1
    49   29   30 ar
    50   29   58 1
    51   30   31 ar
    52   30   34 1
    53   31   32 ar
    54   31   33 1
    55   32   59 1
    56   34   35 1
    57   35   36 1
    58   35   60 1
    59   35   61 1
    60   36   37 1
    61   36   62 1
    62   36   63 1
    63   37   42 1
    64   37   38 1
    65   38   39 1
    66   38   64 1
    67   38   65 1
    68   39   40 1
    69   39   66 1
    70   39   67 1
    71   40   41 1
    72   40   43 1
    73   40   78 1
    74   41   42 1
    75   41   68 1
    76   41   69 1
    77   42   70 1
    78   42   71 1
    79   43   72 1
    80   43   73 1
    81   43   74 1
    82   44   75 1
    83   44   76 1
    84   44   77 1
@<TRIPOS>MOLECULE
CHEMBL237127
   42    45     0     0     0
SMALL
USER_CHARGES

@<TRIPOS>ATOM
      1 C1         -1.5211    0.8104    0.1754 C.3       1 <0>        -0.1253
      2 C2         -0.4883   -0.2822    0.0724 C.ar      1 <0>        -0.0916
      3 C3         -0.2668   -0.9110   -1.1377 C.ar      1 <0>        -0.0770
      4 C4          0.6798   -1.9129   -1.2357 C.ar      1 <0>        -0.1294
      5 C5          1.4111   -2.2913   -0.1181 C.ar      1 <0>         0.1295
      6 C6          1.1921   -1.6633    1.0975 C.ar      1 <0>        -0.1618
      7 C7          0.2447   -0.6528    1.1931 C.ar      1 <0>         0.1191
      8 N1          0.0246   -0.0134    2.4158 N.pl3     1 <0>        -0.6132
      9 C8         -0.0457   -0.7572    3.5847 C.ar      1 <0>         0.3479
     10 C9         -0.0149   -2.1433    3.5530 C.ar      1 <0>        -0.2641
     11 C10        -0.0866   -2.8602    4.7389 C.ar      1 <0>         0.2334
     12 N2         -0.1838   -2.2630    5.9042 N.ar      1 <0>        -0.5059
     13 C11        -0.2189   -0.9291    6.0099 C.ar      1 <0>         0.1789
     14 C12        -0.1452   -0.1250    4.8466 C.ar      1 <0>        -0.1300
     15 C13        -0.1765    1.2732    4.9577 C.ar      1 <0>        -0.0547
     16 C14        -0.2725    1.8549    6.1828 C.ar      1 <0>        -0.1010
     17 C15        -0.3412    1.0708    7.3449 C.ar      1 <0>         0.0797
     18 C16        -0.3231   -0.3094    7.2650 C.ar      1 <0>        -0.1255
     19 C17        -0.4450    1.7289    8.6702 C.2       1 <0>         0.0378
     20 C18        -0.5837    3.1034    8.7637 C.2       1 <0>        -0.2381
     21 S1         -0.6571    3.3467   10.4278 S.3       1 <0>         0.2935
     22 C19        -0.5039    1.6439   10.9386 C.2       1 <0>        -0.0499
     23 N3         -0.4124    1.0166    9.7722 N.2       1 <0>        -0.4215
     24 C20        -0.4882    1.0840   12.2915 C.2       1 <0>         0.4356
     25 O1         -0.5893    1.8175   13.2529 O.2       1 <0>        -0.4243
     26 O2          2.3410   -3.2775   -0.2161 O.3       1 <0>        -0.4934
     27 H1         -1.0546    1.7724   -0.0367 H         1 <0>         0.0811
     28 H2         -2.3179    0.6262   -0.5451 H         1 <0>         0.0838
     29 H3         -1.9377    0.8228    1.1826 H         1 <0>         0.0641
     30 H4         -0.8348   -0.6191   -2.0086 H         1 <0>         0.1439
     31 H5          0.8506   -2.4025   -2.1831 H         1 <0>         0.1430
     32 H6          1.7602   -1.9564    1.9680 H         1 <0>         0.1403
     33 H7         -0.0790    0.9505    2.4473 H         1 <0>         0.4274
     34 H8          0.0641   -2.6625    2.6093 H         1 <0>         0.1844
     35 H9         -0.0621   -3.9393    4.7024 H         1 <0>         0.2082
     36 H10        -0.1239    1.8871    4.0707 H         1 <0>         0.1485
     37 H11        -0.2958    2.9317    6.2626 H         1 <0>         0.1518
     38 H12        -0.3763   -0.9066    8.1633 H         1 <0>         0.1662
     39 H13        -0.6325    3.8343    7.9700 H         1 <0>         0.2122
     40 H14        -0.3867    0.0183   12.4336 H         1 <0>         0.1495
     41 H15         3.2262   -2.9621   -0.4442 H         1 <0>         0.4016
     42 H16        -0.2316   -2.8023    6.7090 H         1 <0>         0.4454
@<TRIPOS>BOND
     1    1    2 1
     2    1   27 1
     3    1   28 1
     4    1   29 1
     5    2    7 ar
     6    2    3 ar
     7    3    4 ar
     8    3   30 1
     9    4    5 ar
    10    4   31 1
    11    5    6 ar
    12    5   26 1
    13    6    7 ar
    14    6   32 1
    15    7    8 1
    16    8    9 1
    17    8   33 1
    18    9   14 ar
    19    9   10 ar
    20   10   11 ar
    21   10   34 1
    22   11   12 ar
    23   11   35 1
    24   12   13 ar
    25   12   42 1
    26   13   18 ar
    27   13   14 ar
    28   14   15 ar
    29   15   16 ar
    30   15   36 1
    31   16   17 ar
    32   16   37 1
    33   17   18 ar
    34   17   19 1
    35   18   38 1
    36   19   23 1
    37   19   20 2
    38   20   21 1
    39   20   39 1
    40   21   22 1
    41   22   23 2
    42   22   24 1
    43   24   25 2
    44   24   40 1
    45   26   41 1
@<TRIPOS>MOLECULE
CHEMBL237127__1
   41    44     0     0     0
SMALL
USER_CHARGES

@<TRIPOS>ATOM
      1 C1         -1.5211    0.8104    0.1754 C.3       1 <0>        -0.1162
      2 C2         -0.4883   -0.2822    0.0724 C.ar      1 <0>        -0.1178
      3 C3         -0.2668   -0.9110   -1.1377 C.ar      1 <0>        -0.0793
      4 C4          0.6798   -1.9129   -1.2357 C.ar      1 <0>        -0.1549
      5 C5          1.4111   -2.2913   -0.1181 C.ar      1 <0>         0.1252
      6 C6          1.1921   -1.6633    1.0975 C.ar      1 <0>        -0.1683
      7 C7          0.2447   -0.6528    1.1931 C.ar      1 <0>         0.1695
      8 N1          0.0246   -0.0134    2.4158 N.pl3     1 <0>        -0.6639
      9 C8         -0.0457   -0.7572    3.5847 C.ar      1 <0>         0.2538
     10 C9         -0.0149   -2.1433    3.5530 C.ar      1 <0>        -0.2614
     11 C10        -0.0866   -2.8602    4.7389 C.ar      1 <0>         0.1734
     12 N2         -0.1838   -2.2630    5.9042 N.ar      1 <0>        -0.5073
     13 C11        -0.2189   -0.9291    6.0099 C.ar      1 <0>         0.1632
     14 C12        -0.1452   -0.1250    4.8466 C.ar      1 <0>        -0.1368
     15 C13        -0.1765    1.2732    4.9577 C.ar      1 <0>        -0.0875
     16 C14        -0.2725    1.8549    6.1828 C.ar      1 <0>        -0.1114
     17 C15        -0.3412    1.0708    7.3449 C.ar      1 <0>        -0.0031
     18 C16        -0.3231   -0.3094    7.2650 C.ar      1 <0>        -0.0618
     19 C17        -0.4450    1.7289    8.6702 C.2       1 <0>         0.0720
     20 C18        -0.5837    3.1034    8.7637 C.2       1 <0>        -0.2455
     21 S1         -0.6571    3.3467   10.4278 S.3       1 <0>         0.2425
     22 C19        -0.5039    1.6439   10.9386 C.2       1 <0>        -0.0575
     23 N3         -0.4124    1.0166    9.7722 N.2       1 <0>        -0.4161
     24 C20        -0.4882    1.0840   12.2915 C.2       1 <0>         0.4413
     25 O1         -0.5893    1.8175   13.2529 O.2       1 <0>        -0.4384
     26 O2          2.3410   -3.2775   -0.2161 O.3       1 <0>        -0.4961
     27 H1         -1.0546    1.7724   -0.0367 H         1 <0>         0.0716
     28 H2         -2.3179    0.6262   -0.5451 H         1 <0>         0.0737
     29 H3         -1.9377    0.8228    1.1826 H         1 <0>         0.0654
     30 H4         -0.8348   -0.6191   -2.0086 H         1 <0>         0.1334
     31 H5          0.8506   -2.4025   -2.1831 H         1 <0>         0.1327
     32 H6          1.7602   -1.9564    1.9680 H         1 <0>         0.1378
     33 H7         -0.0790    0.9505    2.4473 H         1 <0>         0.4131
     34 H8          0.0641   -2.6625    2.6093 H         1 <0>         0.1444
     35 H9         -0.0621   -3.9393    4.7024 H         1 <0>         0.1610
     36 H10        -0.1239    1.8871    4.0707 H         1 <0>         0.1243
     37 H11        -0.2958    2.9317    6.2626 H         1 <0>         0.1289
     38 H12        -0.3763   -0.9066    8.1633 H         1 <0>         0.1491
     39 H13        -0.6325    3.8343    7.9700 H         1 <0>         0.2068
     40 H14        -0.3867    0.0183   12.4336 H         1 <0>         0.1463
     41 H15         3.2262   -2.9621   -0.4442 H         1 <0>         0.3939
@<TRIPOS>BOND
     1    1    2 1
     2    1   27 1
     3    1   28 1
     4    1   29 1
     5    2    7 ar
     6    2    3 ar
     7    3    4 ar
     8    3   30 1
     9    4    5 ar
    10    4   31 1
    11    5    6 ar
    12    5   26 1
    13    6    7 ar
    14    6   32 1
    15    7    8 1
    16    8    9 1
    17    8   33 1
    18    9   14 ar
    19    9   10 ar
    20   10   11 ar
    21   10   34 1
    22   11   12 ar
    23   11   35 1
    24   12   13 ar
    25   13   18 ar
    26   13   14 ar
    27   14   15 ar
    28   15   16 ar
    29   15   36 1
    30   16   17 ar
    31   16   37 1
    32   17   18 ar
    33   17   19 1
    34   18   38 1
    35   19   23 1
    36   19   20 2
    37   20   21 1
    38   20   39 1
    39   21   22 1
    40   22   23 2
    41   22   24 1
    42   24   25 2
    43   24   40 1
    44   26   41 1
@<TRIPOS>MOLECULE
CHEMBL273250
   61    64     0     0     0
SMALL
USER_CHARGES

@<TRIPOS>ATOM
      1 C1         -1.8964    1.6675    0.2083 C.3       1 <0>        -0.1169
      2 C2         -1.4925    0.2275    0.0228 C.ar      1 <0>        -0.0818
      3 C3         -1.6742   -0.3895   -1.1999 C.ar      1 <0>        -0.1036
      4 C4         -1.3042   -1.7105   -1.3715 C.ar      1 <0>        -0.0994
      5 C5         -0.7512   -2.4193   -0.3204 C.ar      1 <0>        -0.1045
      6 C6         -0.5671   -1.8085    0.9053 C.ar      1 <0>        -0.0222
      7 C7         -0.9325   -0.4785    1.0788 C.ar      1 <0>         0.1353
      8 N1         -0.7419    0.1452    2.3165 N.am      1 <0>        -0.6666
      9 C8         -1.2146   -0.4292    3.4404 C.2       1 <0>         0.6018
     10 O1         -1.7179   -1.5368    3.3927 O.2       1 <0>        -0.4718
     11 C9         -1.1229    0.2779    4.7170 C.2       1 <0>        -0.2653
     12 C10        -1.5333   -0.1195    5.9820 C.2       1 <0>         0.1545
     13 N2         -1.3214    0.7297    6.9556 N.2       1 <0>        -0.5464
     14 C11        -0.7474    1.8998    6.7379 C.2       1 <0>         0.2539
     15 S1         -0.4447    1.8889    5.0825 S.3       1 <0>         0.2355
     16 N3         -0.4597    2.8931    7.6522 N.pl3     1 <0>        -0.5948
     17 C12        -0.6831    2.6762    9.0088 C.ar      1 <0>         0.4278
     18 C13        -1.0437    1.4096    9.4524 C.ar      1 <0>        -0.2110
     19 C14        -1.2637    1.2028   10.8045 C.ar      1 <0>         0.0638
     20 C15        -1.1152    2.2731   11.6715 C.ar      1 <0>        -0.2258
     21 C16        -0.7523    3.5144   11.1623 C.ar      1 <0>         0.4622
     22 N4         -0.5443    3.6780    9.8643 N.ar      1 <0>        -0.5324
     23 N5         -0.6010    4.5940   12.0246 N.pl3     1 <0>        -0.7025
     24 C17        -0.8237    4.4201   13.4621 C.3       1 <0>         0.1135
     25 C18        -0.5933    5.7522   14.1787 C.3       1 <0>        -0.1332
     26 C19        -0.8259    5.5706   15.6800 C.3       1 <0>         0.0575
     27 N6         -0.6046    6.8495   16.3680 N.3       1 <0>        -0.5378
     28 C20         0.8062    7.2548   16.2859 C.3       1 <0>         0.0137
     29 C21         0.9803    8.6174   16.9618 C.3       1 <0>         0.0612
     30 O2          0.5180    8.5364   18.3127 O.3       1 <0>        -0.3817
     31 C22        -0.8525    8.1448   18.4297 C.3       1 <0>         0.0611
     32 C23        -1.0452    6.7774   17.7687 C.3       1 <0>         0.0174
     33 Cl1         0.1266   -2.6986    2.2245 Cl        1 <0>        -0.0449
     34 H1         -1.0567    2.3156   -0.0428 H         1 <0>         0.0768
     35 H2         -2.7391    1.8955   -0.4444 H         1 <0>         0.0783
     36 H3         -2.1854    1.8331    1.2461 H         1 <0>         0.0642
     37 H4         -2.1061    0.1608   -2.0227 H         1 <0>         0.1370
     38 H5         -1.4478   -2.1902   -2.3284 H         1 <0>         0.1388
     39 H6         -0.4632   -3.4511   -0.4578 H         1 <0>         0.1403
     40 H7         -0.2697    0.9910    2.3657 H         1 <0>         0.4080
     41 H8         -2.0024   -1.0770    6.1538 H         1 <0>         0.2044
     42 H9         -0.1018    3.7422    7.3493 H         1 <0>         0.4418
     43 H10        -1.1518    0.5956    8.7509 H         1 <0>         0.2183
     44 H11        -1.5452    0.2281   11.1747 H         1 <0>         0.1773
     45 H12        -1.2798    2.1444   12.7310 H         1 <0>         0.1778
     46 H13        -0.3479    5.4625   11.6746 H         1 <0>         0.4172
     47 H14        -1.8475    4.0877   13.6336 H         1 <0>         0.0913
     48 H15        -0.1298    3.6743   13.8497 H         1 <0>         0.0888
     49 H16         0.4306    6.0846   14.0073 H         1 <0>         0.0774
     50 H17        -1.2872    6.4981   13.7911 H         1 <0>         0.0873
     51 H18        -1.8497    5.2382   15.8514 H         1 <0>         0.0846
     52 H19        -0.1320    4.8247   16.0676 H         1 <0>         0.0436
     53 H20         1.4272    6.5156   16.7918 H         1 <0>         0.0465
     54 H21         1.1039    7.3267   15.2398 H         1 <0>         0.0849
     55 H22         2.0341    8.8956   16.9538 H         1 <0>         0.1006
     56 H23         0.4011    9.3675   16.4232 H         1 <0>         0.0609
     57 H24        -1.1242    8.0812   19.4834 H         1 <0>         0.1034
     58 H25        -1.4851    8.8811   17.9339 H         1 <0>         0.0621
     59 H26        -2.0989    6.5008   17.8050 H         1 <0>         0.0902
     60 H27        -0.4538    6.0305   18.2983 H         1 <0>         0.0476
     61 H28        -0.2879    4.5526    9.5321 H         1 <0>         0.4338
@<TRIPOS>BOND
     1    1    2 1
     2    1   34 1
     3    1   35 1
     4    1   36 1
     5    2    7 ar
     6    2    3 ar
     7    3    4 ar
     8    3   37 1
     9    4    5 ar
    10    4   38 1
    11    5    6 ar
    12    5   39 1
    13    6    7 ar
    14    6   33 1
    15    7    8 1
    16    8    9 am
    17    8   40 1
    18    9   10 2
    19    9   11 1
    20   11   15 1
    21   11   12 2
    22   12   13 1
    23   12   41 1
    24   13   14 2
    25   14   15 1
    26   14   16 1
    27   16   17 1
    28   16   42 1
    29   17   22 ar
    30   17   18 ar
    31   18   19 ar
    32   18   43 1
    33   19   20 ar
    34   19   44 1
    35   20   21 ar
    36   20   45 1
    37   21   22 ar
    38   21   23 1
    39   22   61 1
    40   23   24 1
    41   23   46 1
    42   24   25 1
    43   24   47 1
    44   24   48 1
    45   25   26 1
    46   25   49 1
    47   25   50 1
    48   26   27 1
    49   26   51 1
    50   26   52 1
    51   27   32 1
    52   27   28 1
    53   28   29 1
    54   28   53 1
    55   28   54 1
    56   29   30 1
    57   29   55 1
    58   29   56 1
    59   30   31 1
    60   31   32 1
    61   31   57 1
    62   31   58 1
    63   32   59 1
    64   32   60 1
@<TRIPOS>MOLECULE
CHEMBL273250__1
   60    63     0     0     0
SMALL
USER_CHARGES

@<TRIPOS>ATOM
      1 C1          3.3392    6.6626    1.8698 C.3       1 <0>        -0.1165
      2 C2          2.6244    7.9850    1.9760 C.ar      1 <0>        -0.0854
      3 C3          2.9401    9.0132    1.1088 C.ar      1 <0>        -0.1055
      4 C4          2.2852   10.2269    1.2051 C.ar      1 <0>        -0.1073
      5 C5          1.3120   10.4167    2.1693 C.ar      1 <0>        -0.1066
      6 C6          0.9915    9.3929    3.0402 C.ar      1 <0>        -0.0244
      7 C7          1.6441    8.1694    2.9416 C.ar      1 <0>         0.1464
      8 N1          1.3182    7.1283    3.8175 N.am      1 <0>        -0.6736
      9 C8          1.3154    7.3430    5.1480 C.2       1 <0>         0.6138
     10 O1          1.4971    8.4653    5.5840 O.2       1 <0>        -0.4924
     11 C9          1.0942    6.2282    6.0680 C.2       1 <0>        -0.3141
     12 C10         1.0452    6.2198    7.4551 C.2       1 <0>         0.1726
     13 N2          0.8280    5.0601    8.0223 N.2       1 <0>        -0.5242
     14 C11         0.6652    3.9615    7.3064 C.2       1 <0>         0.3184
     15 S1          0.8043    4.5012    5.7184 S.3       1 <0>         0.1266
     16 N3          0.4315    2.6770    7.7544 N.pl3     1 <0>        -0.5944
     17 C12         0.2332    2.4385    9.1113 C.ar      1 <0>         0.4115
     18 C13        -0.1130    1.1635    9.5420 C.ar      1 <0>        -0.2645
     19 C14        -0.3080    0.9352   10.8944 C.ar      1 <0>        -0.0042
     20 C15        -0.1497    1.9931   11.7748 C.ar      1 <0>        -0.2682
     21 C16         0.1977    3.2439   11.2782 C.ar      1 <0>         0.4375
     22 N4          0.3819    3.4281    9.9793 N.ar      1 <0>        -0.5313
     23 N5          0.3586    4.3112   12.1540 N.pl3     1 <0>        -0.7204
     24 C17         0.1622    4.1145   13.5923 C.3       1 <0>         0.1310
     25 C18         0.3984    5.4368   14.3248 C.3       1 <0>        -0.1286
     26 C19         0.1932    5.2314   15.8270 C.3       1 <0>         0.0595
     27 N6          0.4200    6.5010   16.5303 N.3       1 <0>        -0.5373
     28 C20         1.8270    6.9151   16.4296 C.3       1 <0>         0.0136
     29 C21         2.0059    8.2683   17.1229 C.3       1 <0>         0.0623
     30 O2          1.5680    8.1645   18.4804 O.3       1 <0>        -0.3852
     31 C22         0.2018    7.7637   18.6155 C.3       1 <0>         0.0625
     32 C23         0.0045    6.4054   17.9373 C.3       1 <0>         0.0174
     33 Cl1        -0.2296    9.6317    4.2507 Cl        1 <0>        -0.0434
     34 H1          2.7981    6.0112    1.1835 H         1 <0>         0.0755
     35 H2          4.3501    6.8249    1.4958 H         1 <0>         0.0752
     36 H3          3.3864    6.1951    2.8533 H         1 <0>         0.0676
     37 H4          3.6998    8.8686    0.3549 H         1 <0>         0.1336
     38 H5          2.5344   11.0289    0.5260 H         1 <0>         0.1349
     39 H6          0.8023   11.3661    2.2419 H         1 <0>         0.1369
     40 H7          1.0941    6.2520    3.4671 H         1 <0>         0.4086
     41 H8          1.1793    7.1210    8.0350 H         1 <0>         0.1853
     42 H9          0.4055    1.9405    7.1237 H         1 <0>         0.4387
     43 H10        -0.2292    0.3596    8.8302 H         1 <0>         0.1330
     44 H11        -0.5779   -0.0465   11.2547 H         1 <0>         0.1381
     45 H12        -0.2950    1.8475   12.8350 H         1 <0>         0.1315
     46 H13         0.6010    5.1862   11.8127 H         1 <0>         0.4078
     47 H14        -0.8567    3.7739   13.7767 H         1 <0>         0.0656
     48 H15         0.8667    3.3666   13.9563 H         1 <0>         0.0633
     49 H16         1.4173    5.7773   14.1405 H         1 <0>         0.0716
     50 H17        -0.3061    6.1847   13.9608 H         1 <0>         0.0815
     51 H18        -0.8257    4.8908   16.0114 H         1 <0>         0.0807
     52 H19         0.8977    4.4835   16.1910 H         1 <0>         0.0395
     53 H20         2.4607    6.1717   16.9133 H         1 <0>         0.0441
     54 H21         2.1058    7.0043   15.3797 H         1 <0>         0.0891
     55 H22         3.0580    8.5524   17.1006 H         1 <0>         0.0991
     56 H23         1.4134    9.0232   16.6060 H         1 <0>         0.0609
     57 H24        -0.0509    7.6828   19.6727 H         1 <0>         0.0995
     58 H25        -0.4432    8.5040   18.1420 H         1 <0>         0.0608
     59 H26        -1.0469    6.1226   17.9880 H         1 <0>         0.0878
     60 H27         0.6091    5.6539   18.4451 H         1 <0>         0.0443
@<TRIPOS>BOND
     1    1    2 1
     2    1   34 1
     3    1   35 1
     4    1   36 1
     5    2    7 ar
     6    2    3 ar
     7    3    4 ar
     8    3   37 1
     9    4    5 ar
    10    4   38 1
    11    5    6 ar
    12    5   39 1
    13    6    7 ar
    14    6   33 1
    15    7    8 1
    16    8    9 am
    17    8   40 1
    18    9   10 2
    19    9   11 1
    20   11   15 1
    21   11   12 2
    22   12   13 1
    23   12   41 1
    24   13   14 2
    25   14   15 1
    26   14   16 1
    27   16   17 1
    28   16   42 1
    29   17   22 ar
    30   17   18 ar
    31   18   19 ar
    32   18   43 1
    33   19   20 ar
    34   19   44 1
    35   20   21 ar
    36   20   45 1
    37   21   22 ar
    38   21   23 1
    39   23   24 1
    40   23   46 1
    41   24   25 1
    42   24   47 1
    43   24   48 1
    44   25   26 1
    45   25   49 1
    46   25   50 1
    47   26   27 1
    48   26   51 1
    49   26   52 1
    50   27   32 1
    51   27   28 1
    52   28   29 1
    53   28   53 1
    54   28   54 1
    55   29   30 1
    56   29   55 1
    57   29   56 1
    58   30   31 1
    59   31   32 1
    60   31   57 1
    61   31   58 1
    62   32   59 1
    63   32   60 1
@<TRIPOS>MOLECULE
CHEMBL273250__2
   62    65     0     0     0
SMALL
USER_CHARGES

@<TRIPOS>ATOM
      1 C1         -1.8964    1.6675    0.2083 C.3       1 <0>        -0.1165
      2 C2         -1.4925    0.2275    0.0228 C.ar      1 <0>        -0.0814
      3 C3         -1.6742   -0.3895   -1.1999 C.ar      1 <0>        -0.1029
      4 C4         -1.3042   -1.7105   -1.3715 C.ar      1 <0>        -0.0971
      5 C5         -0.7512   -2.4193   -0.3204 C.ar      1 <0>        -0.1037
      6 C6         -0.5671   -1.8085    0.9053 C.ar      1 <0>        -0.0217
      7 C7         -0.9325   -0.4785    1.0788 C.ar      1 <0>         0.1322
      8 N1         -0.7419    0.1452    2.3165 N.am      1 <0>        -0.6646
      9 C8         -1.2146   -0.4292    3.4404 C.2       1 <0>         0.5983
     10 O1         -1.7179   -1.5368    3.3927 O.2       1 <0>        -0.4676
     11 C9         -1.1229    0.2779    4.7170 C.2       1 <0>        -0.2535
     12 C10        -1.5333   -0.1195    5.9820 C.2       1 <0>         0.1492
     13 N2         -1.3214    0.7297    6.9556 N.2       1 <0>        -0.5430
     14 C11        -0.7474    1.8998    6.7379 C.2       1 <0>         0.2370
     15 S1         -0.4447    1.8889    5.0825 S.3       1 <0>         0.2488
     16 N3         -0.4597    2.8931    7.6522 N.pl3     1 <0>        -0.5902
     17 C12        -0.6831    2.6762    9.0088 C.ar      1 <0>         0.4377
     18 C13        -1.0437    1.4096    9.4524 C.ar      1 <0>        -0.2044
     19 C14        -1.2637    1.2028   10.8045 C.ar      1 <0>         0.0667
     20 C15        -1.1152    2.2731   11.6715 C.ar      1 <0>        -0.2263
     21 C16        -0.7523    3.5144   11.1623 C.ar      1 <0>         0.4550
     22 N4         -0.5443    3.6780    9.8643 N.ar      1 <0>        -0.5294
     23 N5         -0.6010    4.5940   12.0246 N.pl3     1 <0>        -0.7180
     24 C17        -0.8237    4.4201   13.4621 C.3       1 <0>         0.1221
     25 C18        -0.5933    5.7522   14.1787 C.3       1 <0>        -0.1678
     26 C19        -0.8259    5.5706   15.6800 C.3       1 <0>        -0.0052
     27 N6         -0.6046    6.8495   16.3680 N.4       1 <0>        -0.3858
     28 C20         0.8066    7.2378   16.2385 C.3       1 <0>        -0.0488
     29 C21         1.0345    8.5707   16.9559 C.3       1 <0>         0.0349
     30 O2          0.6493    8.4400   18.3272 O.3       1 <0>        -0.3526
     31 C22        -0.7122    8.0395   18.5051 C.3       1 <0>         0.0341
     32 C23        -0.9434    6.7057   17.7905 C.3       1 <0>        -0.0436
     33 Cl1         0.1266   -2.6986    2.2245 Cl        1 <0>        -0.0457
     34 H1         -1.0567    2.3156   -0.0428 H         1 <0>         0.0770
     35 H2         -2.7391    1.8955   -0.4444 H         1 <0>         0.0791
     36 H3         -2.1854    1.8331    1.2461 H         1 <0>         0.0628
     37 H4         -2.1061    0.1608   -2.0227 H         1 <0>         0.1380
     38 H5         -1.4478   -2.1902   -2.3284 H         1 <0>         0.1402
     39 H6         -0.4632   -3.4511   -0.4578 H         1 <0>         0.1413
     40 H7         -0.2697    0.9910    2.3657 H         1 <0>         0.4075
     41 H8         -2.0024   -1.0770    6.1538 H         1 <0>         0.2067
     42 H9         -0.1018    3.7422    7.3493 H         1 <0>         0.4430
     43 H10        -1.1518    0.5956    8.7509 H         1 <0>         0.2219
     44 H11        -1.5452    0.2281   11.1747 H         1 <0>         0.1804
     45 H12        -1.2798    2.1444   12.7310 H         1 <0>         0.1761
     46 H13        -0.3479    5.4625   11.6746 H         1 <0>         0.4172
     47 H14        -1.8475    4.0877   13.6336 H         1 <0>         0.0976
     48 H15        -0.1298    3.6743   13.8497 H         1 <0>         0.0973
     49 H16         0.4306    6.0846   14.0073 H         1 <0>         0.1009
     50 H17        -1.2872    6.4981   13.7911 H         1 <0>         0.1017
     51 H18        -1.8497    5.2382   15.8514 H         1 <0>         0.1412
     52 H19        -0.1320    4.8247   16.0676 H         1 <0>         0.1391
     53 H20         1.4375    6.4707   16.6875 H         1 <0>         0.1421
     54 H21         1.0589    7.3449   15.1835 H         1 <0>         0.1393
     55 H22         2.0892    8.8395   16.8981 H         1 <0>         0.1439
     56 H23         0.4339    9.3468   16.4815 H         1 <0>         0.0822
     57 H24        -0.9217    7.9238   19.5685 H         1 <0>         0.1465
     58 H25        -1.3726    8.7974   18.0837 H         1 <0>         0.0833
     59 H26        -1.9902    6.4177   17.8877 H         1 <0>         0.1461
     60 H27        -0.3118    5.9387   18.2389 H         1 <0>         0.1423
     61 H28        -0.2879    4.5526    9.5321 H         1 <0>         0.4347
     62 H29        -1.1887    7.5601   15.9532 H         1 <0>         0.4245
@<TRIPOS>BOND
     1    1    2 1
     2    1   34 1
     3    1   35 1
     4    1   36 1
     5    2    7 ar
     6    2    3 ar
     7    3    4 ar
     8    3   37 1
     9    4    5 ar
    10    4   38 1
    11    5    6 ar
    12    5   39 1
    13    6    7 ar
    14    6   33 1
    15    7    8 1
    16    8    9 am
    17    8   40 1
    18    9   10 2
    19    9   11 1
    20   11   15 1
    21   11   12 2
    22   12   13 1
    23   12   41 1
    24   13   14 2
    25   14   15 1
    26   14   16 1
    27   16   17 1
    28   16   42 1
    29   17   22 ar
    30   17   18 ar
    31   18   19 ar
    32   18   43 1
    33   19   20 ar
    34   19   44 1
    35   20   21 ar
    36   20   45 1
    37   21   22 ar
    38   21   23 1
    39   22   61 1
    40   23   24 1
    41   23   46 1
    42   24   25 1
    43   24   47 1
    44   24   48 1
    45   25   26 1
    46   25   49 1
    47   25   50 1
    48   26   27 1
    49   26   51 1
    50   26   52 1
    51   27   32 1
    52   27   28 1
    53   27   62 1
    54   28   29 1
    55   28   53 1
    56   28   54 1
    57   29   30 1
    58   29   55 1
    59   29   56 1
    60   30   31 1
    61   31   32 1
    62   31   57 1
    63   31   58 1
    64   32   59 1
    65   32   60 1
@<TRIPOS>MOLECULE
CHEMBL131346
   52    53     0     0     0
SMALL
USER_CHARGES

@<TRIPOS>ATOM
      1 C1         -1.8521    0.1481    6.8036 C.3       1 <0>        -0.1540
      2 C2         -1.7053   -1.2836    6.2843 C.3       1 <0>        -0.1216
      3 C3         -2.6631   -1.5013    5.1112 C.3       1 <0>        -0.1336
      4 C4         -2.5163   -2.9330    4.5919 C.3       1 <0>         0.1329
      5 N1         -3.4334   -3.1414    3.4686 N.am      1 <0>        -0.7264
      6 C5         -3.4781   -4.3370    2.8482 C.2       1 <0>         0.7044
      7 O1         -2.7574   -5.2425    3.2206 O.2       1 <0>        -0.5492
      8 N2         -4.3218   -4.5288    1.8148 N.am      1 <0>        -0.6194
      9 C6         -4.3677   -5.7563    1.1778 C.2       1 <0>         0.2866
     10 N3         -5.1211   -6.1185    0.1555 N.2       1 <0>        -0.5634
     11 C7         -5.0571   -7.3255   -0.3478 C.2       1 <0>         0.1900
     12 C8         -4.1576   -8.1962    0.2515 C.2       1 <0>        -0.3510
     13 S1         -3.4715   -7.1397    1.5173 S.3       1 <0>         0.2699
     14 C9         -3.8524   -9.5906   -0.0684 C.2       1 <0>         0.6189
     15 O2         -4.4308  -10.1456   -0.9847 O.2       1 <0>        -0.5051
     16 N4         -2.9308  -10.2609    0.6512 N.am      1 <0>        -0.6717
     17 C10        -2.7157  -11.6226    0.4168 C.ar      1 <0>         0.1311
     18 C11        -1.4365  -12.0876    0.1400 C.ar      1 <0>        -0.0857
     19 C12        -1.2273  -13.4331   -0.0907 C.ar      1 <0>        -0.1159
     20 C13        -2.2898  -14.3171   -0.0462 C.ar      1 <0>        -0.0808
     21 C14        -3.5647  -13.8574    0.2286 C.ar      1 <0>        -0.1153
     22 C15        -3.7798  -12.5139    0.4658 C.ar      1 <0>        -0.0636
     23 C16        -5.1684  -12.0148    0.7719 C.3       1 <0>        -0.1112
     24 C17        -2.0578  -15.7847   -0.2984 C.3       1 <0>        -0.1148
     25 C18        -0.2781  -11.1249    0.0909 C.3       1 <0>        -0.1165
     26 C19        -5.9137   -7.7465   -1.5139 C.3       1 <0>        -0.0898
     27 H1         -1.1698    0.3032    7.6394 H         1 <0>         0.0580
     28 H2         -1.6139    0.8505    6.0049 H         1 <0>         0.0551
     29 H3         -2.8772    0.3105    7.1365 H         1 <0>         0.0551
     30 H4         -0.6802   -1.4460    5.9514 H         1 <0>         0.0671
     31 H5         -1.9435   -1.9860    7.0830 H         1 <0>         0.0671
     32 H6         -3.6882   -1.3389    5.4441 H         1 <0>         0.0718
     33 H7         -2.4248   -0.7989    4.3125 H         1 <0>         0.0718
     34 H8         -1.4912   -3.0954    4.2590 H         1 <0>         0.0749
     35 H9         -2.7545   -3.6354    5.3906 H         1 <0>         0.0749
     36 H10        -4.0084   -2.4190    3.1715 H         1 <0>         0.4045
     37 H11        -4.8968   -3.8064    1.5176 H         1 <0>         0.4242
     38 H12        -2.4168   -9.7988    1.3318 H         1 <0>         0.4058
     39 H13        -0.2330  -13.7952   -0.3063 H         1 <0>         0.1256
     40 H14        -4.3925  -14.5503    0.2619 H         1 <0>         0.1254
     41 H15        -5.7128  -11.8612   -0.1598 H         1 <0>         0.0839
     42 H16        -5.6926  -12.7504    1.3821 H         1 <0>         0.0639
     43 H17        -5.1040  -11.0719    1.3149 H         1 <0>         0.0570
     44 H18        -1.8380  -16.2851    0.6446 H         1 <0>         0.0710
     45 H19        -2.9517  -16.2227   -0.7424 H         1 <0>         0.0669
     46 H20        -1.2160  -15.9076   -0.9798 H         1 <0>         0.0667
     47 H21         0.1792  -11.0560    1.0779 H         1 <0>         0.0725
     48 H22         0.4602  -11.4811   -0.6275 H         1 <0>         0.0712
     49 H23        -0.6359  -10.1412   -0.2132 H         1 <0>         0.0648
     50 H24        -5.3872   -7.5384   -2.4453 H         1 <0>         0.0829
     51 H25        -6.1220   -8.8142   -1.4449 H         1 <0>         0.0976
     52 H26        -6.8516   -7.1915   -1.4948 H         1 <0>         0.0754
@<TRIPOS>BOND
     1    1    2 1
     2    1   27 1
     3    1   28 1
     4    1   29 1
     5    2    3 1
     6    2   30 1
     7    2   31 1
     8    3    4 1
     9    3   32 1
    10    3   33 1
    11    4    5 1
    12    4   34 1
    13    4   35 1
    14    5    6 am
    15    5   36 1
    16    6    7 2
    17    6    8 am
    18    8    9 1
    19    8   37 1
    20    9   13 1
    21    9   10 2
    22   10   11 1
    23   11   12 2
    24   11   26 1
    25   12   13 1
    26   12   14 1
    27   14   15 2
    28   14   16 am
    29   16   17 1
    30   16   38 1
    31   17   22 ar
    32   17   18 ar
    33   18   19 ar
    34   18   25 1
    35   19   20 ar
    36   19   39 1
    37   20   21 ar
    38   20   24 1
    39   21   22 ar
    40   21   40 1
    41   22   23 1
    42   23   41 1
    43   23   42 1
    44   23   43 1
    45   24   44 1
    46   24   45 1
    47   24   46 1
    48   25   47 1
    49   25   48 1
    50   25   49 1
    51   26   50 1
    52   26   51 1
    53   26   52 1
@<TRIPOS>MOLECULE
CHEMBL424220
   59    63     0     0     0
SMALL
USER_CHARGES

@<TRIPOS>ATOM
      1 C1          0.5613    0.1657    3.8191 C.3       1 <0>        -0.1039
      2 C2          0.4625   -1.0617    2.9503 C.2       1 <0>        -0.1331
      3 C3         -0.7907   -1.6904    2.7547 C.ar      1 <0>         0.0222
      4 C4         -1.9572   -1.1961    3.3547 C.ar      1 <0>        -0.1313
      5 C5         -3.1514   -1.8171    3.1518 C.ar      1 <0>        -0.0301
      6 C6         -3.2383   -2.9595    2.3420 C.ar      1 <0>         0.0647
      7 C7         -2.0863   -3.4746    1.7300 C.ar      1 <0>         0.1009
      8 C8         -0.8551   -2.8411    1.9337 C.ar      1 <0>        -0.1356
      9 C9          0.3785   -3.3353    1.3192 C.2       1 <0>         0.5462
     10 N1          1.5347   -2.6812    1.5534 N.am      1 <0>        -0.6211
     11 C10         1.5751   -1.5601    2.3514 C.2       1 <0>         0.1572
     12 C11         2.8637   -0.8845    2.5667 C.2       1 <0>        -0.1286
     13 C12         3.9545   -1.3182    1.9413 C.2       1 <0>        -0.1196
     14 C13         5.2749   -0.6260    2.1619 C.3       1 <0>         0.0820
     15 N2          6.2748   -1.6077    2.6028 N.3       1 <0>        -0.5354
     16 C14         5.9401   -2.1400    3.9317 C.3       1 <0>         0.0165
     17 C15         6.9722   -3.2000    4.3256 C.3       1 <0>         0.0623
     18 O1          8.2799   -2.6223    4.2873 O.3       1 <0>        -0.3844
     19 C16         8.6389   -2.0944    3.0076 C.3       1 <0>         0.0625
     20 C17         7.6237   -1.0232    2.6003 C.3       1 <0>         0.0168
     21 O2          0.3611   -4.3235    0.6069 O.2       1 <0>        -0.5406
     22 N3         -2.4903   -4.5809    1.0122 N.pl3     1 <0>        -0.4895
     23 C18        -3.8374   -4.7144    1.1948 C.2       1 <0>         0.5306
     24 N4         -4.2746   -3.7595    1.9773 N.2       1 <0>        -0.5083
     25 N5         -4.6201   -5.7063    0.6383 N.pl3     1 <0>        -0.6516
     26 C19        -5.9695   -5.8140    0.9924 C.ar      1 <0>         0.1791
     27 C20        -6.8359   -4.7513    0.7660 C.ar      1 <0>        -0.0125
     28 C21        -8.1683   -4.8613    1.1171 C.ar      1 <0>        -0.0963
     29 C22        -8.6392   -6.0268    1.6934 C.ar      1 <0>        -0.0962
     30 C23        -7.7800   -7.0861    1.9205 C.ar      1 <0>        -0.0967
     31 C24        -6.4477   -6.9859    1.5660 C.ar      1 <0>        -0.0371
     32 Cl1        -5.3717   -8.3195    1.8440 Cl        1 <0>        -0.0507
     33 Cl2        -6.2455   -3.2873    0.0437 Cl        1 <0>        -0.0331
     34 C25        -1.6334   -5.4511    0.2031 C.3       1 <0>         0.0852
     35 H1          1.3765    0.7968    3.4650 H         1 <0>         0.0706
     36 H2         -0.3753    0.7211    3.7712 H         1 <0>         0.0749
     37 H3          0.7543   -0.1331    4.8494 H         1 <0>         0.0736
     38 H4         -1.9081   -0.3181    3.9816 H         1 <0>         0.1417
     39 H5         -4.0426   -1.4259    3.6200 H         1 <0>         0.1358
     40 H6          2.9242   -0.0364    3.2325 H         1 <0>         0.1443
     41 H7          3.8941   -2.1663    1.2754 H         1 <0>         0.1151
     42 H8          5.6039   -0.1656    1.2303 H         1 <0>         0.0930
     43 H9          5.1589    0.1428    2.9259 H         1 <0>         0.0480
     44 H10         5.9528   -1.3307    4.6618 H         1 <0>         0.0459
     45 H11         4.9480   -2.5906    3.9041 H         1 <0>         0.0873
     46 H12         6.7612   -3.5565    5.3338 H         1 <0>         0.0995
     47 H13         6.9223   -4.0343    3.6259 H         1 <0>         0.0602
     48 H14         9.6333   -1.6513    3.0625 H         1 <0>         0.1004
     49 H15         8.6374   -2.8966    2.2696 H         1 <0>         0.0608
     50 H16         7.8605   -0.6586    1.6008 H         1 <0>         0.0888
     51 H17         7.6633   -0.1960    3.3091 H         1 <0>         0.0460
     52 H18        -4.2345   -6.3286    0.0019 H         1 <0>         0.4215
     53 H19        -8.8422   -4.0359    0.9415 H         1 <0>         0.1442
     54 H20        -9.6807   -6.1097    1.9670 H         1 <0>         0.1454
     55 H21        -8.1512   -7.9946    2.3714 H         1 <0>         0.1444
     56 H22        -1.0172   -6.0660    0.8592 H         1 <0>         0.0781
     57 H23        -2.2543   -6.0945   -0.4204 H         1 <0>         0.0635
     58 H24        -0.9911   -4.8404   -0.4314 H         1 <0>         0.1144
     59 H25         2.3542   -3.0054    1.1482 H         1 <0>         0.4122
@<TRIPOS>BOND
     1    1    2 1
     2    1   35 1
     3    1   36 1
     4    1   37 1
     5    2   11 2
     6    2    3 1
     7    3    8 ar
     8    3    4 ar
     9    4    5 ar
    10    4   38 1
    11    5    6 ar
    12    5   39 1
    13    6   24 1
    14    6    7 ar
    15    7    8 ar
    16    7   22 1
    17    8    9 1
    18    9   10 am
    19    9   21 2
    20   10   11 1
    21   10   59 1
    22   11   12 1
    23   12   13 2
    24   12   40 1
    25   13   14 1
    26   13   41 1
    27   14   15 1
    28   14   42 1
    29   14   43 1
    30   15   20 1
    31   15   16 1
    32   16   17 1
    33   16   44 1
    34   16   45 1
    35   17   18 1
    36   17   46 1
    37   17   47 1
    38   18   19 1
    39   19   20 1
    40   19   48 1
    41   19   49 1
    42   20   50 1
    43   20   51 1
    44   22   23 1
    45   22   34 1
    46   23   24 2
    47   23   25 1
    48   25   26 1
    49   25   52 1
    50   26   31 ar
    51   26   27 ar
    52   27   28 ar
    53   27   33 1
    54   28   29 ar
    55   28   53 1
    56   29   30 ar
    57   29   54 1
    58   30   31 ar
    59   30   55 1
    60   31   32 1
    61   34   56 1
    62   34   57 1
    63   34   58 1
@<TRIPOS>MOLECULE
CHEMBL565263
   75    81     0     0     0
SMALL
USER_CHARGES

@<TRIPOS>ATOM
      1 C1          0.6976   -0.7306    1.6735 C.3       1 <0>        -0.1692
      2 C2          0.0834   -0.0402    0.4540 C.3       1 <0>         0.1464
      3 H1          0.1241    1.0405    0.5895 H         1 <0>         0.1075
      4 C3          0.8692   -0.4269   -0.8005 C.3       1 <0>         0.1403
      5 H2          0.8179   -1.5060   -0.9462 H         1 <0>         0.0990
      6 C4          2.3333    0.0022   -0.6436 C.3       1 <0>         0.1210
      7 N1          3.0055   -0.1377   -1.9429 N.am      1 <0>        -0.6265
      8 C5          2.4377    0.5488   -3.1117 C.3       1 <0>         0.0921
      9 C6          0.9736    0.1196   -3.2687 C.3       1 <0>         0.1200
     10 N2          0.2987    0.2563   -1.9700 N.pl3     1 <0>        -0.6574
     11 C7         -0.8570    1.0221   -1.8489 C.ar      1 <0>         0.3258
     12 C8         -0.8570    2.2058   -1.1113 C.ar      1 <0>        -0.1520
     13 C9         -2.0229    2.9360   -1.0162 C.ar      1 <0>         0.1430
     14 N3         -3.1277    2.5273   -1.6118 N.ar      1 <0>        -0.4641
     15 C10        -3.1684    1.4130   -2.3181 C.ar      1 <0>         0.1488
     16 C11        -2.0439    0.6288   -2.4668 C.ar      1 <0>        -0.1552
     17 C12         4.1231   -0.8818   -2.0604 C.2       1 <0>         0.7095
     18 O1          4.5322   -1.5187   -1.1089 O.2       1 <0>        -0.5529
     19 N4          4.7871   -0.9200   -3.2327 N.am      1 <0>        -0.6712
     20 C13         5.8982   -1.7528   -3.3788 C.ar      1 <0>         0.1589
     21 C14         6.1044   -2.7971   -2.5033 C.ar      1 <0>        -0.1394
     22 C15         7.2088   -3.6327   -2.6398 C.ar      1 <0>        -0.0927
     23 C16         8.1144   -3.4432   -3.6389 C.ar      1 <0>        -0.1229
     24 C17         7.9406   -2.3902   -4.5528 C.ar      1 <0>        -0.0334
     25 C18         6.8170   -1.5364   -4.4276 C.ar      1 <0>        -0.0654
     26 C19         6.6419   -0.4883   -5.3447 C.ar      1 <0>        -0.1172
     27 C20         7.5486   -0.3090   -6.3445 C.ar      1 <0>        -0.1087
     28 C21         8.6506   -1.1522   -6.4726 C.ar      1 <0>        -0.1153
     29 C22         8.8592   -2.1707   -5.5941 C.ar      1 <0>        -0.0988
     30 N5         -1.3118   -0.4616    0.3056 N.pl3     1 <0>        -0.6953
     31 C23        -2.3098    0.1886    1.0104 C.ar      1 <0>         0.5887
     32 N6         -1.9856    1.1936    1.8108 N.ar      1 <0>        -0.5746
     33 C24        -2.9130    1.8398    2.5008 C.ar      1 <0>         0.2195
     34 C25        -4.2358    1.4557    2.3800 C.ar      1 <0>        -0.3043
     35 C26        -4.5456    0.3947    1.5299 C.ar      1 <0>         0.4537
     36 N7         -3.5656   -0.2056    0.8640 N.ar      1 <0>        -0.5906
     37 N8         -5.8650   -0.0267    1.3776 N.pl3     1 <0>        -0.4446
     38 C27        -6.9610    0.5064    1.9907 C.2       1 <0>         0.2713
     39 N9         -8.0329   -0.1298    1.6202 N.2       1 <0>        -0.4595
     40 C28        -7.7024   -1.1147    0.7448 C.ar      1 <0>         0.0436
     41 C29        -6.3090   -1.0602    0.5716 C.ar      1 <0>         0.0529
     42 C30        -5.6816   -1.9550   -0.2824 C.ar      1 <0>        -0.0969
     43 C31        -6.4290   -2.8942   -0.9616 C.ar      1 <0>        -0.0972
     44 C32        -7.8053   -2.9501   -0.7970 C.ar      1 <0>        -0.1165
     45 C33        -8.4439   -2.0751    0.0525 C.ar      1 <0>        -0.0590
     46 H3          0.5861   -1.8103    1.5743 H         1 <0>         0.0668
     47 H4          1.7562   -0.4791    1.7385 H         1 <0>         0.0801
     48 H5          0.1881   -0.3941    2.5764 H         1 <0>         0.0748
     49 H6          2.3769    1.0419   -0.3191 H         1 <0>         0.0798
     50 H7          2.8241   -0.6342    0.0927 H         1 <0>         0.1197
     51 H8          2.4888    1.6274   -2.9630 H         1 <0>         0.0835
     52 H9          2.9975    0.2733   -4.0055 H         1 <0>         0.0941
     53 H10         0.4827    0.7561   -4.0049 H         1 <0>         0.0958
     54 H11         0.9299   -0.9201   -3.5931 H         1 <0>         0.0814
     55 H12         0.0435    2.5457   -0.6212 H         1 <0>         0.1806
     56 H13        -2.0323    3.8536   -0.4469 H         1 <0>         0.2048
     57 H14        -4.0930    1.1140   -2.7894 H         1 <0>         0.2036
     58 H15        -2.0828   -0.2792   -3.0502 H         1 <0>         0.1807
     59 H16         4.4930   -0.3690   -3.9748 H         1 <0>         0.4044
     60 H17         5.4010   -2.9686   -1.7020 H         1 <0>         0.1605
     61 H18         7.3502   -4.4445   -1.9417 H         1 <0>         0.1284
     62 H19         8.9659   -4.1016   -3.7285 H         1 <0>         0.1300
     63 H20         5.7920    0.1725   -5.2579 H         1 <0>         0.1144
     64 H21         7.4115    0.4982   -7.0488 H         1 <0>         0.1247
     65 H22         9.3549   -0.9891   -7.2749 H         1 <0>         0.1269
     66 H23         9.7186   -2.8154   -5.7047 H         1 <0>         0.1322
     67 H24        -1.5362   -1.1962   -0.2868 H         1 <0>         0.4160
     68 H25        -2.6390    2.6575    3.1509 H         1 <0>         0.1836
     69 H26        -5.0115    1.9658    2.9318 H         1 <0>         0.1551
     70 H27        -6.9412    1.3353    2.6827 H         1 <0>         0.2239
     71 H28        -4.6105   -1.9162   -0.4154 H         1 <0>         0.1349
     72 H29        -5.9396   -3.5906   -1.6264 H         1 <0>         0.1347
     73 H30        -8.3796   -3.6900   -1.3348 H         1 <0>         0.1376
     74 H31        -9.5159   -2.1238    0.1749 H         1 <0>         0.1378
     75 H32        -3.9331    3.0613   -1.5277 H         1 <0>         0.4479
@<TRIPOS>BOND
     1    1    2 1
     2    1   46 1
     3    1   47 1
     4    1   48 1
     5    2    3 1
     6    2    4 1
     7    2   30 1
     8    4    5 1
     9    4   10 1
    10    4    6 1
    11    6    7 1
    12    6   49 1
    13    6   50 1
    14    7    8 1
    15    7   17 am
    16    8    9 1
    17    8   51 1
    18    8   52 1
    19    9   10 1
    20    9   53 1
    21    9   54 1
    22   10   11 1
    23   11   16 ar
    24   11   12 ar
    25   12   13 ar
    26   12   55 1
    27   13   14 ar
    28   13   56 1
    29   14   15 ar
    30   14   75 1
    31   15   16 ar
    32   15   57 1
    33   16   58 1
    34   17   18 2
    35   17   19 am
    36   19   20 1
    37   19   59 1
    38   20   25 ar
    39   20   21 ar
    40   21   22 ar
    41   21   60 1
    42   22   23 ar
    43   22   61 1
    44   23   24 ar
    45   23   62 1
    46   24   29 ar
    47   24   25 ar
    48   25   26 ar
    49   26   27 ar
    50   26   63 1
    51   27   28 ar
    52   27   64 1
    53   28   29 ar
    54   28   65 1
    55   29   66 1
    56   30   31 1
    57   30   67 1
    58   31   36 ar
    59   31   32 ar
    60   32   33 ar
    61   33   34 ar
    62   33   68 1
    63   34   35 ar
    64   34   69 1
    65   35   36 ar
    66   35   37 1
    67   37   41 1
    68   37   38 1
    69   38   39 2
    70   38   70 1
    71   39   40 1
    72   40   45 ar
    73   40   41 ar
    74   41   42 ar
    75   42   43 ar
    76   42   71 1
    77   43   44 ar
    78   43   72 1
    79   44   45 ar
    80   44   73 1
    81   45   74 1
@<TRIPOS>MOLECULE
CHEMBL232588
   74    79     0     0     0
SMALL
USER_CHARGES

@<TRIPOS>ATOM
      1 C1         -4.3672   -0.8709    1.0455 C.3       1 <0>         0.0744
      2 N1         -3.3390   -0.1958    0.2498 N.pl3     1 <0>        -0.4489
      3 C2         -3.1486   -0.3440   -1.1038 C.ar      1 <0>         0.1134
      4 C3         -3.7924   -1.1005   -2.0792 C.ar      1 <0>        -0.1314
      5 C4         -3.3642   -1.0393   -3.3862 C.ar      1 <0>        -0.0825
      6 C5         -2.2939   -0.2288   -3.7436 C.ar      1 <0>        -0.1456
      7 C6         -1.6470    0.5218   -2.8056 C.ar      1 <0>        -0.0610
      8 C7         -2.0637    0.4769   -1.4687 C.ar      1 <0>        -0.1194
      9 C8         -1.6155    1.1179   -0.2885 C.2       1 <0>        -0.1312
     10 C9         -2.4051    0.6990    0.7351 C.2       1 <0>         0.0112
     11 C10        -2.2827    1.1272    2.1363 C.2       1 <0>         0.5895
     12 O1         -2.9851    0.6204    2.9908 O.2       1 <0>        -0.5214
     13 N2         -1.3925    2.0811    2.4741 N.am      1 <0>        -0.6466
     14 C11        -1.2729    2.4858    3.8093 C.ar      1 <0>         0.1338
     15 C12        -2.3383    2.3165    4.6832 C.ar      1 <0>        -0.1016
     16 C13        -2.2239    2.7141    5.9993 C.ar      1 <0>        -0.1105
     17 C14        -1.0368    3.2873    6.4547 C.ar      1 <0>        -0.0344
     18 C15         0.0343    3.4576    5.5784 C.ar      1 <0>        -0.1695
     19 C16        -0.0821    3.0529    4.2609 C.ar      1 <0>         0.1042
     20 O2          0.9624    3.2134    3.4052 O.3       1 <0>        -0.3160
     21 C17         2.1517    3.8014    3.9362 C.3       1 <0>         0.0273
     22 C18        -0.9142    3.7154    7.8684 C.2       1 <0>        -0.0452
     23 C19        -0.6045    4.9968    8.1755 C.2       1 <0>        -0.1693
     24 S1         -0.5772    5.0015    9.9581 S.3       1 <0>         0.1385
     25 C20        -0.9780    3.3007   10.2472 C.ar      1 <0>        -0.0154
     26 C21        -1.1313    2.7632    8.9547 C.ar      1 <0>        -0.1859
     27 C22        -1.4669    1.3855    8.8913 C.ar      1 <0>         0.4903
     28 N3         -1.6269    0.6680    9.9867 N.ar      1 <0>        -0.5508
     29 C23        -1.4915    1.1589   11.2033 C.ar      1 <0>         0.2117
     30 C24        -1.1515    2.5020   11.3818 C.ar      1 <0>        -0.2217
     31 C25        -0.9971    3.0672   12.7319 C.2       1 <0>         0.5824
     32 O3         -0.7153    4.2423   12.8708 O.2       1 <0>        -0.5186
     33 N4         -1.1681    2.2827   13.8144 N.am      1 <0>        -0.7336
     34 C26        -1.0144    2.8453   15.1584 C.3       1 <0>         0.0996
     35 C27        -1.2595    1.7518   16.2001 C.3       1 <0>        -0.0184
     36 N5         -1.1054    2.3159   17.5477 N.4       1 <0>        -0.3910
     37 C28        -2.2093    3.2677   17.8338 C.3       1 <0>        -0.0107
     38 C29        -2.2392    3.3208   19.3820 C.3       1 <0>        -0.1453
     39 C30        -1.9335    1.8596   19.7840 C.3       1 <0>        -0.1454
     40 C31        -1.2205    1.2476   18.5640 C.3       1 <0>        -0.0072
     41 N6         -1.6299    0.7840    7.6574 N.pl3     1 <0>        -0.8353
     42 H1         -5.2310   -0.2151    1.1546 H         1 <0>         0.0733
     43 H2         -4.6699   -1.7899    0.5435 H         1 <0>         0.0828
     44 H3         -3.9659   -1.1101    2.0302 H         1 <0>         0.0988
     45 H4         -4.6252   -1.7339   -1.8112 H         1 <0>         0.1228
     46 H5         -3.8651   -1.6274   -4.1410 H         1 <0>         0.1300
     47 H6         -1.9706   -0.1928   -4.7735 H         1 <0>         0.1270
     48 H7         -0.8158    1.1486   -3.0929 H         1 <0>         0.1268
     49 H8         -0.7958    1.8172   -0.2155 H         1 <0>         0.1523
     50 H9         -0.8347    2.4872    1.7924 H         1 <0>         0.4209
     51 H10        -3.2583    1.8731    4.3321 H         1 <0>         0.1658
     52 H11        -3.0541    2.5817    6.6772 H         1 <0>         0.1314
     53 H12         0.9544    3.9015    5.9286 H         1 <0>         0.1382
     54 H13         1.9265    4.7988    4.3138 H         1 <0>         0.0587
     55 H14         2.5314    3.1823    4.7490 H         1 <0>         0.0573
     56 H15         2.9042    3.8716    3.1508 H         1 <0>         0.1059
     57 H16        -0.4181    5.8198    7.5015 H         1 <0>         0.1952
     58 H17        -1.6354    0.5200   12.0621 H         1 <0>         0.1640
     59 H18        -1.3928    1.3456   13.7037 H         1 <0>         0.4058
     60 H19        -0.0042    3.2379   15.2745 H         1 <0>         0.0901
     61 H20        -1.7356    3.6502   15.2999 H         1 <0>         0.0901
     62 H21        -2.2697    1.3592   16.0839 H         1 <0>         0.1374
     63 H22        -0.5383    0.9469   16.0585 H         1 <0>         0.1380
     64 H23        -1.9866    4.2509   17.4194 H         1 <0>         0.1381
     65 H24        -3.1541    2.8895   17.4435 H         1 <0>         0.1357
     66 H25        -1.4695    3.9938   19.7597 H         1 <0>         0.0993
     67 H26        -3.2244    3.6209   19.7387 H         1 <0>         0.1177
     68 H27        -1.2794    1.8360   20.6556 H         1 <0>         0.1061
     69 H28        -2.8592    1.3224   19.9900 H         1 <0>         0.1045
     70 H29        -1.8080    0.4195   18.1674 H         1 <0>         0.1320
     71 H30        -0.2282    0.8988   18.8501 H         1 <0>         0.1340
     72 H31        -1.1054    1.0839    6.8985 H         1 <0>         0.4170
     73 H32        -2.2688    0.0619    7.5504 H         1 <0>         0.4102
     74 H33        -0.2137    2.7807   17.6309 H         1 <0>         0.4299
@<TRIPOS>BOND
     1    1    2 1
     2    1   42 1
     3    1   43 1
     4    1   44 1
     5    2   10 1
     6    2    3 1
     7    3    8 ar
     8    3    4 ar
     9    4    5 ar
    10    4   45 1
    11    5    6 ar
    12    5   46 1
    13    6    7 ar
    14    6   47 1
    15    7    8 ar
    16    7   48 1
    17    8    9 1
    18    9   10 2
    19    9   49 1
    20   10   11 1
    21   11   12 2
    22   11   13 am
    23   13   14 1
    24   13   50 1
    25   14   19 ar
    26   14   15 ar
    27   15   16 ar
    28   15   51 1
    29   16   17 ar
    30   16   52 1
    31   17   18 ar
    32   17   22 1
    33   18   19 ar
    34   18   53 1
    35   19   20 1
    36   20   21 1
    37   21   54 1
    38   21   55 1
    39   21   56 1
    40   22   26 1
    41   22   23 2
    42   23   24 1
    43   23   57 1
    44   24   25 1
    45   25   30 ar
    46   25   26 ar
    47   26   27 ar
    48   27   28 ar
    49   27   41 1
    50   28   29 ar
    51   29   30 ar
    52   29   58 1
    53   30   31 1
    54   31   32 2
    55   31   33 am
    56   33   34 1
    57   33   59 1
    58   34   35 1
    59   34   60 1
    60   34   61 1
    61   35   36 1
    62   35   62 1
    63   35   63 1
    64   36   40 1
    65   36   37 1
    66   36   74 1
    67   37   38 1
    68   37   64 1
    69   37   65 1
    70   38   39 1
    71   38   66 1
    72   38   67 1
    73   39   40 1
    74   39   68 1
    75   39   69 1
    76   40   70 1
    77   40   71 1
    78   41   72 1
    79   41   73 1
@<TRIPOS>MOLECULE
CHEMBL55496
   70    74     0     0     0
SMALL
USER_CHARGES

@<TRIPOS>ATOM
      1 C1          0.0361    0.2167   -0.8788 C.3       1 <0>         0.0797
      2 N1          0.4461   -0.9551   -0.1011 N.pl3     1 <0>        -1.1197
      3 S1          0.8925   -0.7819    1.4842 S.o2      1 <0>         2.7006
      4 O1          1.2044   -2.0830    1.9628 O.2       1 <0>        -0.9614
      5 O2          1.8243    0.2900    1.5290 O.2       1 <0>        -0.9479
      6 C2         -0.5330   -0.2473    2.3713 C.ar      1 <0>        -0.6995
      7 C3         -0.7968    1.1058    2.5057 C.ar      1 <0>         0.0169
      8 C4         -1.9090    1.5402    3.1975 C.ar      1 <0>        -0.1514
      9 C5         -2.7791    0.6183    3.7693 C.ar      1 <0>         0.2005
     10 C6         -2.5088   -0.7500    3.6312 C.ar      1 <0>        -0.1236
     11 C7         -1.3880   -1.1775    2.9265 C.ar      1 <0>         0.0364
     12 C8         -3.5974   -1.4631    4.3354 C.2       1 <0>        -0.1887
     13 C9         -3.7580   -2.8289    4.4701 C.2       1 <0>         0.0665
     14 C10        -4.7700   -3.3406    5.3083 C.2       1 <0>        -0.0083
     15 C11        -5.4934   -4.5076    5.1039 C.2       1 <0>        -0.1063
     16 C12        -6.3801   -4.6266    6.1682 C.2       1 <0>        -0.1663
     17 C13        -6.1975   -3.5588    6.9932 C.2       1 <0>         0.0760
     18 N2         -5.2183   -2.7760    6.4850 N.pl3     1 <0>        -0.4999
     19 H1         -4.8880   -1.9542    6.8804 H         1 <0>         0.4220
     20 C14        -6.9842   -3.3330    8.2626 C.3       1 <0>        -0.0618
     21 C15        -8.2329   -4.2217    8.2231 C.3       1 <0>        -0.1146
     22 C16        -7.8289   -5.6576    7.8783 C.3       1 <0>        -0.1214
     23 C17        -7.3848   -5.7252    6.4120 C.3       1 <0>        -0.0446
     24 C18        -5.3461   -5.4634    3.9481 C.3       1 <0>        -0.0436
     25 C19        -4.3070   -6.5305    4.2980 C.3       1 <0>        -0.1454
     26 C20        -4.1574   -7.5008    3.1246 C.3       1 <0>        -0.0121
     27 N3         -3.1597   -8.5254    3.4606 N.4       1 <0>        -0.3853
     28 C21        -1.8454   -7.8921    3.6216 C.3       1 <0>        -0.0083
     29 C22        -0.8183   -8.9420    4.0509 C.3       1 <0>        -0.1439
     30 C23        -0.7332  -10.0328    2.9794 C.3       1 <0>         0.0961
     31 C24        -2.1249  -10.6354    2.7668 C.3       1 <0>        -0.1839
     32 C25        -3.1036   -9.5228    2.3851 C.3       1 <0>        -0.0024
     33 O3          0.1694  -11.0544    3.4082 O.3       1 <0>        -0.5531
     34 C26        -4.4697   -0.4051    4.8610 C.2       1 <0>         0.5565
     35 O4         -5.4885   -0.5727    5.5077 O.2       1 <0>        -0.4991
     36 N4         -3.9477    0.7804    4.5032 N.am      1 <0>        -0.6500
     37 H2          0.8553    0.9350   -0.9129 H         1 <0>         0.0728
     38 H3         -0.2193   -0.0913   -1.8927 H         1 <0>         0.0862
     39 H4         -0.8327    0.6784   -0.4096 H         1 <0>         0.0610
     40 H5          0.4562   -1.8324   -0.5147 H         1 <0>         0.4190
     41 H6         -0.1253    1.8279    2.0651 H         1 <0>         0.1532
     42 H7         -2.1039    2.5980    3.2953 H         1 <0>         0.1434
     43 H8         -1.1856   -2.2328    2.8181 H         1 <0>         0.1430
     44 H9         -3.1085   -3.5045    3.9334 H         1 <0>         0.1501
     45 H10        -6.3727   -3.5975    9.1253 H         1 <0>         0.0823
     46 H11        -7.2807   -2.2862    8.3294 H         1 <0>         0.0804
     47 H12        -8.7209   -4.2058    9.1976 H         1 <0>         0.0752
     48 H13        -8.9217   -3.8466    7.4661 H         1 <0>         0.0694
     49 H14        -7.0058   -5.9680    8.5219 H         1 <0>         0.0644
     50 H15        -8.6799   -6.3212    8.0312 H         1 <0>         0.0697
     51 H16        -8.2473   -5.5852    5.7603 H         1 <0>         0.0706
     52 H17        -6.9260   -6.6934    6.2116 H         1 <0>         0.0646
     53 H18        -6.3048   -5.9417    3.7478 H         1 <0>         0.0854
     54 H19        -5.0211   -4.9161    3.0633 H         1 <0>         0.0786
     55 H20        -3.3483   -6.0521    4.4984 H         1 <0>         0.0875
     56 H21        -4.6320   -7.0777    5.1829 H         1 <0>         0.0909
     57 H22        -5.1161   -7.9792    2.9242 H         1 <0>         0.1332
     58 H23        -3.8324   -6.9536    2.2397 H         1 <0>         0.1311
     59 H24        -1.5375   -7.4492    2.6745 H         1 <0>         0.1327
     60 H25        -1.9083   -7.1138    4.3822 H         1 <0>         0.1392
     61 H26         0.1573   -8.4701    4.1682 H         1 <0>         0.1201
     62 H27        -1.1251   -9.3854    4.9982 H         1 <0>         0.0958
     63 H28        -0.3772   -9.5990    2.0450 H         1 <0>         0.0735
     64 H29        -2.0833  -11.3740    1.9663 H         1 <0>         0.1142
     65 H30        -2.4589  -11.1139    3.6874 H         1 <0>         0.0965
     66 H31        -4.0954   -9.9484    2.2328 H         1 <0>         0.1339
     67 H32        -2.7689   -9.0451    1.4643 H         1 <0>         0.1305
     68 H33         0.2720  -11.7792    2.7763 H         1 <0>         0.3939
     69 H34        -4.3369    1.6398    4.7288 H         1 <0>         0.4248
     70 H35        -3.4210   -8.9775    4.3239 H         1 <0>         0.4240
@<TRIPOS>BOND
     1    1    2 1
     2    1   37 1
     3    1   38 1
     4    1   39 1
     5    2    3 1
     6    2   40 1
     7    3    4 2
     8    3    5 2
     9    3    6 1
    10    6   11 ar
    11    6    7 ar
    12    7    8 ar
    13    7   41 1
    14    8    9 ar
    15    8   42 1
    16    9   36 1
    17    9   10 ar
    18   10   11 ar
    19   10   12 1
    20   11   43 1
    21   12   13 2
    22   12   34 1
    23   13   14 1
    24   13   44 1
    25   14   18 1
    26   14   15 2
    27   15   16 1
    28   15   24 1
    29   16   23 1
    30   16   17 2
    31   17   18 1
    32   17   20 1
    33   18   19 1
    34   20   21 1
    35   20   45 1
    36   20   46 1
    37   21   22 1
    38   21   47 1
    39   21   48 1
    40   22   23 1
    41   22   49 1
    42   22   50 1
    43   23   51 1
    44   23   52 1
    45   24   25 1
    46   24   53 1
    47   24   54 1
    48   25   26 1
    49   25   55 1
    50   25   56 1
    51   26   27 1
    52   26   57 1
    53   26   58 1
    54   27   32 1
    55   27   28 1
    56   27   70 1
    57   28   29 1
    58   28   59 1
    59   28   60 1
    60   29   30 1
    61   29   61 1
    62   29   62 1
    63   30   31 1
    64   30   33 1
    65   30   63 1
    66   31   32 1
    67   31   64 1
    68   31   65 1
    69   32   66 1
    70   32   67 1
    71   33   68 1
    72   34   35 2
    73   34   36 am
    74   36   69 1
@<TRIPOS>MOLECULE
CHEMBL232334
   70    74     0     0     0
SMALL
USER_CHARGES

@<TRIPOS>ATOM
      1 C1          2.2932   -3.4505    1.8811 C.3       1 <0>         0.0744
      2 N1          1.1658   -2.8894    1.1326 N.pl3     1 <0>        -0.4489
      3 C2          0.8314   -3.2013   -0.1641 C.ar      1 <0>         0.1134
      4 C3          1.3838   -4.0605   -1.1101 C.ar      1 <0>        -0.1314
      5 C4          0.8116   -4.1633   -2.3581 C.ar      1 <0>        -0.0824
      6 C5         -0.3139   -3.4171   -2.6849 C.ar      1 <0>        -0.1455
      7 C6         -0.8732   -2.5683   -1.7748 C.ar      1 <0>        -0.0610
      8 C7         -0.3097   -2.4459   -0.4979 C.ar      1 <0>        -0.1195
      9 C8         -0.6427   -1.6751    0.6421 C.2       1 <0>        -0.1312
     10 C9          0.2604   -1.9646    1.6154 C.2       1 <0>         0.0112
     11 C10         0.2739   -1.3833    2.9658 C.2       1 <0>         0.5895
     12 O1          1.1826   -1.6445    3.7315 O.2       1 <0>        -0.5213
     13 N2         -0.7204   -0.5612    3.3556 N.am      1 <0>        -0.6466
     14 C11        -0.7054   -0.0042    4.6402 C.ar      1 <0>         0.1339
     15 C12        -0.0073   -0.6348    5.6612 C.ar      1 <0>        -0.1016
     16 C13         0.0097   -0.0889    6.9280 C.ar      1 <0>        -0.1105
     17 C14        -0.6749    1.0986    7.1856 C.ar      1 <0>        -0.0345
     18 C15        -1.3761    1.7334    6.1612 C.ar      1 <0>        -0.1694
     19 C16        -1.3866    1.1860    4.8910 C.ar      1 <0>         0.1041
     20 O2         -2.0656    1.8054    3.8889 O.3       1 <0>        -0.3160
     21 C17        -2.7407    3.0212    4.2175 C.3       1 <0>         0.0272
     22 C18        -0.6575    1.6847    8.5469 C.2       1 <0>        -0.0451
     23 C19        -1.8138    1.9201    9.2101 C.2       1 <0>        -0.1692
     24 S1         -1.2696    2.6107   10.7611 S.3       1 <0>         0.1384
     25 C20         0.4796    2.5679   10.4864 C.ar      1 <0>        -0.0154
     26 C21         0.6079    2.0129    9.1986 C.ar      1 <0>        -0.1859
     27 C22         1.9349    1.8569    8.7194 C.ar      1 <0>         0.4905
     28 N3          2.9738    2.2110    9.4513 N.ar      1 <0>        -0.5510
     29 C23         2.8691    2.7272   10.6604 C.ar      1 <0>         0.2119
     30 C24         1.6085    2.9345   11.2257 C.ar      1 <0>        -0.2221
     31 C25         1.4725    3.5085   12.5740 C.2       1 <0>         0.5825
     32 O3          0.3682    3.6691   13.0581 O.2       1 <0>        -0.5186
     33 N4          2.5715    3.8562   13.2724 N.am      1 <0>        -0.7337
     34 C26         2.4361    4.4276   14.6145 C.3       1 <0>         0.0974
     35 C27         3.8242    4.7314   15.1819 C.3       1 <0>        -0.0245
     36 N5          3.6884    5.3044   16.5277 N.4       1 <0>        -0.3828
     37 C28         3.1105    4.3006   17.4312 C.3       1 <0>        -0.0562
     38 C29         5.0111    5.7065   17.0244 C.3       1 <0>        -0.0468
     39 N6          2.1426    1.3231    7.4613 N.pl3     1 <0>        -0.8351
     40 H1          1.9463   -4.2872    2.4876 H         1 <0>         0.0733
     41 H2          3.0552   -3.7986    1.1837 H         1 <0>         0.0829
     42 H3          2.7170   -2.6833    2.5290 H         1 <0>         0.0988
     43 H4          2.2588   -4.6445   -0.8657 H         1 <0>         0.1229
     44 H5          1.2421   -4.8302   -3.0904 H         1 <0>         0.1300
     45 H6         -0.7499   -3.5095   -3.6686 H         1 <0>         0.1270
     46 H7         -1.7479   -1.9921   -2.0380 H         1 <0>         0.1268
     47 H8         -1.4686   -0.9842    0.7247 H         1 <0>         0.1524
     48 H9         -1.4465   -0.3554    2.7462 H         1 <0>         0.4209
     49 H10         0.5231   -1.5546    5.4635 H         1 <0>         0.1658
     50 H11         0.5531   -0.5814    7.7208 H         1 <0>         0.1314
     51 H12        -1.9073    2.6529    6.3583 H         1 <0>         0.1382
     52 H13        -3.4790    2.8279    4.9958 H         1 <0>         0.0587
     53 H14        -2.0171    3.7529    4.5769 H         1 <0>         0.0573
     54 H15        -3.2410    3.4102    3.3307 H         1 <0>         0.1060
     55 H16        -2.8247    1.7343    8.8786 H         1 <0>         0.1952
     56 H17         3.7582    2.9975   11.2107 H         1 <0>         0.1641
     57 H18         3.4521    3.7282   12.8863 H         1 <0>         0.4060
     58 H19         1.8561    5.3489   14.5604 H         1 <0>         0.0908
     59 H20         1.9265    3.7150   15.2631 H         1 <0>         0.0913
     60 H21         4.4042    3.8102   15.2360 H         1 <0>         0.1383
     61 H22         4.3338    5.4440   14.5333 H         1 <0>         0.1393
     62 H23         3.0097    4.7257   18.4298 H         1 <0>         0.1284
     63 H24         2.1290    4.0022   17.0627 H         1 <0>         0.1267
     64 H25         3.7638    3.4290   17.4716 H         1 <0>         0.1249
     65 H26         5.4400    6.4513   16.3540 H         1 <0>         0.1251
     66 H27         4.9104    6.1316   18.0230 H         1 <0>         0.1278
     67 H28         5.6645    4.8349   17.0648 H         1 <0>         0.1237
     68 H29         1.4983    1.4831    6.7541 H         1 <0>         0.4170
     69 H30         2.9327    0.7885    7.2857 H         1 <0>         0.4102
     70 H31         3.0836    6.1112   16.4904 H         1 <0>         0.4304
@<TRIPOS>BOND
     1    1    2 1
     2    1   40 1
     3    1   41 1
     4    1   42 1
     5    2   10 1
     6    2    3 1
     7    3    8 ar
     8    3    4 ar
     9    4    5 ar
    10    4   43 1
    11    5    6 ar
    12    5   44 1
    13    6    7 ar
    14    6   45 1
    15    7    8 ar
    16    7   46 1
    17    8    9 1
    18    9   10 2
    19    9   47 1
    20   10   11 1
    21   11   12 2
    22   11   13 am
    23   13   14 1
    24   13   48 1
    25   14   19 ar
    26   14   15 ar
    27   15   16 ar
    28   15   49 1
    29   16   17 ar
    30   16   50 1
    31   17   18 ar
    32   17   22 1
    33   18   19 ar
    34   18   51 1
    35   19   20 1
    36   20   21 1
    37   21   52 1
    38   21   53 1
    39   21   54 1
    40   22   26 1
    41   22   23 2
    42   23   24 1
    43   23   55 1
    44   24   25 1
    45   25   30 ar
    46   25   26 ar
    47   26   27 ar
    48   27   28 ar
    49   27   39 1
    50   28   29 ar
    51   29   30 ar
    52   29   56 1
    53   30   31 1
    54   31   32 2
    55   31   33 am
    56   33   34 1
    57   33   57 1
    58   34   35 1
    59   34   58 1
    60   34   59 1
    61   35   36 1
    62   35   60 1
    63   35   61 1
    64   36   37 1
    65   36   38 1
    66   36   70 1
    67   37   62 1
    68   37   63 1
    69   37   64 1
    70   38   65 1
    71   38   66 1
    72   38   67 1
    73   39   68 1
    74   39   69 1
@<TRIPOS>MOLECULE
CHEMBL325282
   35    38     0     0     0
SMALL
USER_CHARGES

@<TRIPOS>ATOM
      1 C1         -0.0090    1.3911    0.0470 C.ar      1 <0>        -0.0852
      2 C2          0.9695    1.6855    0.9787 C.ar      1 <0>        -0.0957
      3 C3          2.1754    1.0104    0.9538 C.ar      1 <0>        -0.0260
      4 C4          2.4036    0.0345   -0.0087 C.ar      1 <0>         0.1429
      5 C5          1.4178   -0.2590   -0.9430 C.ar      1 <0>        -0.0407
      6 C6          0.2145    0.4205   -0.9123 C.ar      1 <0>        -0.0963
      7 Cl1         1.6975   -1.4769   -2.1481 Cl        1 <0>        -0.0358
      8 N1          3.6234   -0.6508   -0.0373 N.pl3     1 <0>        -0.6484
      9 C7          3.6832   -1.9678    0.3633 C.2       1 <0>         0.5589
     10 N2          2.6062   -2.7366    0.6963 N.pl3     1 <0>        -0.6126
     11 H1          1.6767   -2.4590    0.6934 H         1 <0>         0.4189
     12 C8          3.0907   -3.9889    1.0396 C.ar      1 <0>         0.0276
     13 C9          2.4946   -5.1670    1.4574 C.ar      1 <0>        -0.0682
     14 C10         3.2662   -6.2819    1.7340 C.ar      1 <0>        -0.1248
     15 C11         4.6384   -6.2353    1.5971 C.ar      1 <0>        -0.0440
     16 C12         5.2623   -5.0600    1.1761 C.ar      1 <0>        -0.1082
     17 C13         4.4878   -3.9192    0.8929 C.ar      1 <0>         0.1478
     18 N3          4.7840   -2.6729    0.4763 N.2       1 <0>        -0.5112
     19 C14         6.7282   -5.0428    1.0359 C.2       1 <0>         0.5643
     20 O1          7.3297   -3.9867    0.9900 O.2       1 <0>        -0.5123
     21 N4          7.3955   -6.2116    0.9595 N.am      1 <0>        -0.7330
     22 C15         6.6851   -7.4877    0.9572 C.3       1 <0>         0.1139
     23 C16         5.4832   -7.4455    1.8984 C.3       1 <0>        -0.0984
     24 Cl2         3.4035    1.3817    2.1232 Cl        1 <0>        -0.0323
     25 H2         -0.9518    1.9172    0.0714 H         1 <0>         0.1503
     26 H3          0.7914    2.4442    1.7264 H         1 <0>         0.1494
     27 H4         -0.5521    0.1930   -1.6382 H         1 <0>         0.1487
     28 H5          4.4267   -0.1986   -0.3391 H         1 <0>         0.4394
     29 H6          1.4214   -5.2158    1.5684 H         1 <0>         0.1272
     30 H7          2.7908   -7.1953    2.0598 H         1 <0>         0.1374
     31 H8          8.3640   -6.2050    0.9048 H         1 <0>         0.4040
     32 H9          6.3408   -7.7040   -0.0542 H         1 <0>         0.0662
     33 H10         7.3648   -8.2765    1.2795 H         1 <0>         0.0889
     34 H11         5.8323   -7.3957    2.9298 H         1 <0>         0.0889
     35 H12         4.8856   -8.3470    1.7630 H         1 <0>         0.0985
@<TRIPOS>BOND
     1    1    6 ar
     2    1    2 ar
     3    1   25 1
     4    2    3 ar
     5    2   26 1
     6    3    4 ar
     7    3   24 1
     8    4    5 ar
     9    4    8 1
    10    5    6 ar
    11    5    7 1
    12    6   27 1
    13    8    9 1
    14    8   28 1
    15    9   18 2
    16    9   10 1
    17   10   11 1
    18   10   12 1
    19   12   17 ar
    20   12   13 ar
    21   13   14 ar
    22   13   29 1
    23   14   15 ar
    24   14   30 1
    25   15   23 1
    26   15   16 ar
    27   16   17 ar
    28   16   19 1
    29   17   18 1
    30   19   20 2
    31   19   21 am
    32   21   22 1
    33   21   31 1
    34   22   23 1
    35   22   32 1
    36   22   33 1
    37   23   34 1
    38   23   35 1
@<TRIPOS>MOLECULE
CHEMBL29488
   62    66     0     0     0
SMALL
USER_CHARGES

@<TRIPOS>ATOM
      1 C1          0.1199    0.9011    3.4907 C.3       1 <0>        -0.1257
      2 C2          0.2213   -0.5475    3.0875 C.2       1 <0>         0.1559
      3 C3         -0.7443   -1.3968    3.4747 C.2       1 <0>        -0.1577
      4 C4         -0.6601   -2.8067    3.0905 C.ar      1 <0>         0.0312
      5 C5         -1.6391   -3.7318    3.4673 C.ar      1 <0>        -0.1369
      6 C6         -1.5309   -5.0372    3.0932 C.ar      1 <0>        -0.0254
      7 C7         -0.4414   -5.4761    2.3265 C.ar      1 <0>         0.0658
      8 C8          0.5528   -4.5678    1.9358 C.ar      1 <0>         0.1053
      9 C9          0.4472   -3.2254    2.3177 C.ar      1 <0>        -0.1347
     10 C10         1.4503   -2.2277    1.9428 C.2       1 <0>         0.5484
     11 N1          1.2892   -0.9490    2.3365 N.am      1 <0>        -0.6217
     12 O1          2.4189   -2.5491    1.2773 O.2       1 <0>        -0.5293
     13 N2          1.4727   -5.2905    1.2054 N.pl3     1 <0>        -0.4915
     14 C11         1.0354   -6.5840    1.1660 C.2       1 <0>         0.5432
     15 N3         -0.0904   -6.6904    1.8261 N.2       1 <0>        -0.5145
     16 N4          1.6829   -7.6225    0.5267 N.pl3     1 <0>        -0.6542
     17 C12         1.1976   -8.9294    0.6470 C.ar      1 <0>         0.1730
     18 C13        -0.0020   -9.2852    0.0425 C.ar      1 <0>        -0.0091
     19 C14        -0.4781  -10.5773    0.1631 C.ar      1 <0>        -0.0996
     20 C15         0.2377  -11.5152    0.8841 C.ar      1 <0>        -0.0880
     21 C16         1.4316  -11.1646    1.4874 C.ar      1 <0>        -0.0991
     22 C17         1.9168   -9.8760    1.3664 C.ar      1 <0>        -0.0274
     23 Cl1         3.4196   -9.4391    2.1177 Cl        1 <0>        -0.0474
     24 Cl2        -0.9018   -8.1084   -0.8626 Cl        1 <0>        -0.0408
     25 C18         2.6930   -4.7676    0.5861 C.3       1 <0>         0.0838
     26 C19        -1.9052   -0.9022    4.2987 C.3       1 <0>        -0.0802
     27 C20        -3.0612   -0.5714    3.3902 C.2       1 <0>         0.5199
     28 O2         -2.9531   -0.7224    2.1917 O.2       1 <0>        -0.4899
     29 N5         -4.2152   -0.1078    3.9096 N.am      1 <0>        -0.6385
     30 C21        -4.3669    0.0890    5.3595 C.3       1 <0>         0.0821
     31 C22        -4.9083    1.5014    5.6039 C.3       1 <0>        -0.0230
     32 N6         -6.1442    1.6909    4.8340 N.4       1 <0>        -0.3857
     33 C23        -5.8532    1.6227    3.3964 C.3       1 <0>        -0.0199
     34 C24        -5.3567    0.2216    3.0421 C.3       1 <0>         0.0865
     35 C25        -6.7215    3.0035    5.1532 C.3       1 <0>        -0.0470
     36 H1          0.9745    1.4493    3.0943 H         1 <0>         0.0787
     37 H2         -0.8012    1.3257    3.0914 H         1 <0>         0.0823
     38 H3          0.1128    0.9759    4.5781 H         1 <0>         0.0909
     39 H4         -2.4842   -3.4099    4.0577 H         1 <0>         0.1274
     40 H5         -2.2927   -5.7426    3.3908 H         1 <0>         0.1350
     41 H6          2.4743   -7.4461   -0.0058 H         1 <0>         0.4224
     42 H7         -1.4105  -10.8545   -0.3062 H         1 <0>         0.1452
     43 H8         -0.1367  -12.5240    0.9767 H         1 <0>         0.1475
     44 H9          1.9878  -11.8998    2.0501 H         1 <0>         0.1462
     45 H10         3.4314   -4.5568    1.3597 H         1 <0>         0.0792
     46 H11         3.0941   -5.5069   -0.1072 H         1 <0>         0.0674
     47 H12         2.4615   -3.8501    0.0450 H         1 <0>         0.1129
     48 H13        -2.2070   -1.6772    5.0032 H         1 <0>         0.1134
     49 H14        -1.6069   -0.0087    4.8471 H         1 <0>         0.1085
     50 H15        -5.0670   -0.6456    5.7576 H         1 <0>         0.1001
     51 H16        -3.3986   -0.0216    5.8475 H         1 <0>         0.1321
     52 H17        -5.1180    1.6316    6.6656 H         1 <0>         0.1456
     53 H18        -4.1667    2.2348    5.2872 H         1 <0>         0.1339
     54 H19        -6.7591    1.8422    2.8314 H         1 <0>         0.1441
     55 H20        -5.0830    2.3523    3.1464 H         1 <0>         0.1327
     56 H21        -5.0424    0.1985    1.9986 H         1 <0>         0.1358
     57 H22        -6.1584   -0.4994    3.2022 H         1 <0>         0.0949
     58 H23        -6.0083    3.7864    4.8953 H         1 <0>         0.1220
     59 H24        -7.6390    3.1454    4.5822 H         1 <0>         0.1259
     60 H25        -6.9454    3.0525    6.2188 H         1 <0>         0.1263
     61 H26         1.9560   -0.2924    2.0811 H         1 <0>         0.4156
     62 H27        -6.8046    0.9677    5.0769 H         1 <0>         0.4264
@<TRIPOS>BOND
     1    1    2 1
     2    1   36 1
     3    1   37 1
     4    1   38 1
     5    2   11 1
     6    2    3 2
     7    3    4 1
     8    3   26 1
     9    4    9 ar
    10    4    5 ar
    11    5    6 ar
    12    5   39 1
    13    6    7 ar
    14    6   40 1
    15    7   15 1
    16    7    8 ar
    17    8    9 ar
    18    8   13 1
    19    9   10 1
    20   10   11 am
    21   10   12 2
    22   11   61 1
    23   13   14 1
    24   13   25 1
    25   14   15 2
    26   14   16 1
    27   16   17 1
    28   16   41 1
    29   17   22 ar
    30   17   18 ar
    31   18   19 ar
    32   18   24 1
    33   19   20 ar
    34   19   42 1
    35   20   21 ar
    36   20   43 1
    37   21   22 ar
    38   21   44 1
    39   22   23 1
    40   25   45 1
    41   25   46 1
    42   25   47 1
    43   26   27 1
    44   26   48 1
    45   26   49 1
    46   27   28 2
    47   27   29 am
    48   29   34 1
    49   29   30 1
    50   30   31 1
    51   30   50 1
    52   30   51 1
    53   31   32 1
    54   31   52 1
    55   31   53 1
    56   32   33 1
    57   32   35 1
    58   32   62 1
    59   33   34 1
    60   33   54 1
    61   33   55 1
    62   34   56 1
    63   34   57 1
    64   35   58 1
    65   35   59 1
    66   35   60 1
@<TRIPOS>MOLECULE
CHEMBL29488__1
   61    65     0     0     0
SMALL
USER_CHARGES

@<TRIPOS>ATOM
      1 C1          0.1199    0.9011    3.4907 C.3       1 <0>        -0.1244
      2 C2          0.2213   -0.5475    3.0875 C.2       1 <0>         0.1467
      3 C3         -0.7443   -1.3968    3.4747 C.2       1 <0>        -0.1423
      4 C4         -0.6601   -2.8067    3.0905 C.ar      1 <0>         0.0394
      5 C5         -1.6391   -3.7318    3.4673 C.ar      1 <0>        -0.1307
      6 C6         -1.5309   -5.0372    3.0932 C.ar      1 <0>        -0.0269
      7 C7         -0.4414   -5.4761    2.3265 C.ar      1 <0>         0.0611
      8 C8          0.5528   -4.5678    1.9358 C.ar      1 <0>         0.1056
      9 C9          0.4472   -3.2254    2.3177 C.ar      1 <0>        -0.1398
     10 C10         1.4503   -2.2277    1.9428 C.2       1 <0>         0.5492
     11 N1          1.2892   -0.9490    2.3365 N.am      1 <0>        -0.6197
     12 O1          2.4189   -2.5491    1.2773 O.2       1 <0>        -0.5400
     13 N2          1.4727   -5.2905    1.2054 N.pl3     1 <0>        -0.4912
     14 C11         1.0354   -6.5840    1.1660 C.2       1 <0>         0.5350
     15 N3         -0.0904   -6.6904    1.8261 N.2       1 <0>        -0.5133
     16 N4          1.6829   -7.6225    0.5267 N.pl3     1 <0>        -0.6566
     17 C12         1.1976   -8.9294    0.6470 C.ar      1 <0>         0.1775
     18 C13        -0.0020   -9.2852    0.0425 C.ar      1 <0>        -0.0098
     19 C14        -0.4781  -10.5773    0.1631 C.ar      1 <0>        -0.0999
     20 C15         0.2377  -11.5152    0.8841 C.ar      1 <0>        -0.0906
     21 C16         1.4316  -11.1646    1.4874 C.ar      1 <0>        -0.1005
     22 C17         1.9168   -9.8760    1.3664 C.ar      1 <0>        -0.0282
     23 Cl1         3.4196   -9.4391    2.1177 Cl        1 <0>        -0.0491
     24 Cl2        -0.9018   -8.1084   -0.8626 Cl        1 <0>        -0.0382
     25 C18         2.6930   -4.7676    0.5861 C.3       1 <0>         0.0859
     26 C19        -1.9052   -0.9022    4.2987 C.3       1 <0>        -0.0839
     27 C20        -3.0612   -0.5714    3.3902 C.2       1 <0>         0.5149
     28 O2         -2.9531   -0.7224    2.1917 O.2       1 <0>        -0.5232
     29 N5         -4.2152   -0.1078    3.9096 N.am      1 <0>        -0.6177
     30 C21        -4.3655    0.0884    5.3595 C.3       1 <0>         0.1091
     31 C22        -4.8888    1.5072    5.6070 C.3       1 <0>         0.0383
     32 N6         -6.1120    1.7185    4.8216 N.3       1 <0>        -0.5431
     33 C23        -5.8420    1.6291    3.3804 C.3       1 <0>         0.0404
     34 C24        -5.3557    0.2211    3.0410 C.3       1 <0>         0.1159
     35 C25        -6.7402    3.0024    5.1608 C.3       1 <0>         0.0244
     36 H1          0.9745    1.4493    3.0943 H         1 <0>         0.0746
     37 H2         -0.8012    1.3257    3.0914 H         1 <0>         0.0863
     38 H3          0.1128    0.9759    4.5781 H         1 <0>         0.0907
     39 H4         -2.4842   -3.4099    4.0577 H         1 <0>         0.1326
     40 H5         -2.2927   -5.7426    3.3908 H         1 <0>         0.1347
     41 H6          2.4743   -7.4461   -0.0058 H         1 <0>         0.4210
     42 H7         -1.4105  -10.8545   -0.3062 H         1 <0>         0.1444
     43 H8         -0.1367  -12.5240    0.9767 H         1 <0>         0.1459
     44 H9          1.9878  -11.8998    2.0501 H         1 <0>         0.1445
     45 H10         3.4314   -4.5568    1.3597 H         1 <0>         0.0773
     46 H11         3.0941   -5.5069   -0.1072 H         1 <0>         0.0638
     47 H12         2.4615   -3.8501    0.0450 H         1 <0>         0.1129
     48 H13        -2.2070   -1.6772    5.0032 H         1 <0>         0.1084
     49 H14        -1.6069   -0.0087    4.8471 H         1 <0>         0.1052
     50 H15        -5.0751   -0.6379    5.7557 H         1 <0>         0.0815
     51 H16        -3.3990   -0.0358    5.8479 H         1 <0>         0.0908
     52 H17        -5.1106    1.6333    6.6667 H         1 <0>         0.0899
     53 H18        -4.1326    2.2317    5.3046 H         1 <0>         0.0394
     54 H19        -6.7551    1.8436    2.8252 H         1 <0>         0.0889
     55 H20        -5.0725    2.3519    3.1090 H         1 <0>         0.0381
     56 H21        -5.0435    0.1845    1.9973 H         1 <0>         0.0965
     57 H22        -6.1623   -0.4922    3.2100 H         1 <0>         0.0761
     58 H23        -6.0445    3.8144    4.9494 H         1 <0>         0.0263
     59 H24        -7.6435    3.1335    4.5650 H         1 <0>         0.0710
     60 H25        -6.9988    3.0118    6.2196 H         1 <0>         0.0716
     61 H26         1.9560   -0.2924    2.0811 H         1 <0>         0.4134
@<TRIPOS>BOND
     1    1    2 1
     2    1   36 1
     3    1   37 1
     4    1   38 1
     5    2   11 1
     6    2    3 2
     7    3    4 1
     8    3   26 1
     9    4    9 ar
    10    4    5 ar
    11    5    6 ar
    12    5   39 1
    13    6    7 ar
    14    6   40 1
    15    7   15 1
    16    7    8 ar
    17    8    9 ar
    18    8   13 1
    19    9   10 1
    20   10   11 am
    21   10   12 2
    22   11   61 1
    23   13   14 1
    24   13   25 1
    25   14   15 2
    26   14   16 1
    27   16   17 1
    28   16   41 1
    29   17   22 ar
    30   17   18 ar
    31   18   19 ar
    32   18   24 1
    33   19   20 ar
    34   19   42 1
    35   20   21 ar
    36   20   43 1
    37   21   22 ar
    38   21   44 1
    39   22   23 1
    40   25   45 1
    41   25   46 1
    42   25   47 1
    43   26   27 1
    44   26   48 1
    45   26   49 1
    46   27   28 2
    47   27   29 am
    48   29   34 1
    49   29   30 1
    50   30   31 1
    51   30   50 1
    52   30   51 1
    53   31   32 1
    54   31   52 1
    55   31   53 1
    56   32   33 1
    57   32   35 1
    58   33   34 1
    59   33   54 1
    60   33   55 1
    61   34   56 1
    62   34   57 1
    63   35   58 1
    64   35   59 1
    65   35   60 1
@<TRIPOS>MOLECULE
CHEMBL186177
   37    39     0     0     0
SMALL
USER_CHARGES

@<TRIPOS>ATOM
      1 C1         -1.2879    1.1796    0.2122 C.3       1 <0>        -0.1166
      2 C2         -0.6036   -0.1583    0.0993 C.ar      1 <0>        -0.0852
      3 C3         -0.6057   -0.8366   -1.1043 C.ar      1 <0>        -0.1054
      4 C4          0.0221   -2.0639   -1.2094 C.ar      1 <0>        -0.1069
      5 C5          0.6545   -2.6172   -0.1109 C.ar      1 <0>        -0.1064
      6 C6          0.6605   -1.9443    1.0960 C.ar      1 <0>        -0.0243
      7 C7          0.0345   -0.7076    1.2031 C.ar      1 <0>         0.1459
      8 N1          0.0430   -0.0208    2.4218 N.am      1 <0>        -0.6734
      9 C8         -0.3593   -0.6419    3.5483 C.2       1 <0>         0.6138
     10 O1         -0.6337   -1.8279    3.5247 O.2       1 <0>        -0.4918
     11 C9         -0.4662    0.1085    4.7985 C.2       1 <0>        -0.3175
     12 C10        -0.8487   -0.3225    6.0613 C.2       1 <0>         0.1795
     13 N2         -0.8522    0.5815    7.0080 N.2       1 <0>        -0.5757
     14 C11        -0.5088    1.8347    6.7668 C.2       1 <0>         0.3187
     15 S1         -0.1335    1.8321    5.1263 S.3       1 <0>         0.1383
     16 N3         -0.4632    2.8924    7.6511 N.pl3     1 <0>        -0.6038
     17 C12        -0.6875    2.6746    9.0135 C.ar      1 <0>         0.1495
     18 C13        -1.1642    3.7050    9.8140 C.ar      1 <0>        -0.1479
     19 C14        -1.3852    3.4862   11.1595 C.ar      1 <0>        -0.0960
     20 C15        -1.1325    2.2431   11.7102 C.ar      1 <0>        -0.1349
     21 C16        -0.6579    1.2152   10.9162 C.ar      1 <0>        -0.0951
     22 C17        -0.4397    1.4256    9.5688 C.ar      1 <0>        -0.1259
     23 Cl1         1.4543   -2.6391    2.4747 Cl        1 <0>        -0.0436
     24 H1         -0.5798    1.9716   -0.0316 H         1 <0>         0.0755
     25 H2         -2.1283    1.2175   -0.4809 H         1 <0>         0.0755
     26 H3         -1.6506    1.3174    1.2308 H         1 <0>         0.0674
     27 H4         -1.0988   -0.4077   -1.9641 H         1 <0>         0.1338
     28 H5          0.0185   -2.5919   -2.1515 H         1 <0>         0.1352
     29 H6          1.1437   -3.5762   -0.1963 H         1 <0>         0.1372
     30 H7          0.3385    0.9025    2.4561 H         1 <0>         0.4085
     31 H8         -1.1286   -1.3480    6.2523 H         1 <0>         0.1889
     32 H9         -0.2755    3.7874    7.3275 H         1 <0>         0.4306
     33 H10        -1.3615    4.6761    9.3846 H         1 <0>         0.1263
     34 H11        -1.7555    4.2870   11.7825 H         1 <0>         0.1285
     35 H12        -1.3058    2.0748   12.7628 H         1 <0>         0.1251
     36 H13        -0.4612    0.2457   11.3495 H         1 <0>         0.1274
     37 H14        -0.0733    0.6212    8.9484 H         1 <0>         0.1449
@<TRIPOS>BOND
     1    1    2 1
     2    1   24 1
     3    1   25 1
     4    1   26 1
     5    2    7 ar
     6    2    3 ar
     7    3    4 ar
     8    3   27 1
     9    4    5 ar
    10    4   28 1
    11    5    6 ar
    12    5   29 1
    13    6    7 ar
    14    6   23 1
    15    7    8 1
    16    8    9 am
    17    8   30 1
    18    9   10 2
    19    9   11 1
    20   11   15 1
    21   11   12 2
    22   12   13 1
    23   12   31 1
    24   13   14 2
    25   14   15 1
    26   14   16 1
    27   16   17 1
    28   16   32 1
    29   17   22 ar
    30   17   18 ar
    31   18   19 ar
    32   18   33 1
    33   19   20 ar
    34   19   34 1
    35   20   21 ar
    36   20   35 1
    37   21   22 ar
    38   21   36 1
    39   22   37 1
@<TRIPOS>MOLECULE
CHEMBL162
   62    69     0     0     0
SMALL
USER_CHARGES

@<TRIPOS>ATOM
      1 C1         -0.1276    1.5938   -0.2902 C.3       1 <0>        -0.1687
      2 C2         -0.0844    0.0680   -0.1855 C.3       1 <0>         0.3345
      3 C3          0.5692   -0.4497   -1.4608 C.3       1 <0>         0.0405
      4 H1          1.4795    0.1163   -1.6584 H         1 <0>         0.1372
      5 C4          0.9165   -1.9328   -1.2885 C.3       1 <0>        -0.0062
      6 H2          1.3941   -2.3067   -2.1942 H         1 <0>         0.1555
      7 C5          1.8808   -2.0612   -0.1039 C.3       1 <0>        -0.1828
      8 C6          1.2106   -1.5234    1.1545 C.3       1 <0>         0.3001
      9 O1          0.6584   -0.2480    0.9698 O.3       1 <0>        -0.3232
     10 N1          0.2248   -2.4800    1.6600 N.pl3     1 <0>        -0.5368
     11 C7          0.4774   -3.5588    2.4701 C.ar      1 <0>         0.1470
     12 C8          1.6719   -4.0282    3.0159 C.ar      1 <0>        -0.1521
     13 C9          1.6013   -5.1613    3.8083 C.ar      1 <0>        -0.0582
     14 C10         0.4065   -5.8141    4.0588 C.ar      1 <0>        -0.1457
     15 C11        -0.7928   -5.3694    3.5296 C.ar      1 <0>        -0.0281
     16 C12        -0.7420   -4.2270    2.7281 C.ar      1 <0>        -0.1133
     17 C13        -1.7834   -3.4873    2.0211 C.ar      1 <0>         0.0272
     18 C14        -1.1387   -2.4235    1.3862 C.ar      1 <0>         0.0375
     19 C15        -1.8766   -1.5121    0.6225 C.ar      1 <0>         0.0893
     20 N2         -1.4701   -0.3965   -0.1042 N.pl3     1 <0>        -0.5183
     21 C16        -2.5609    0.1893   -0.7020 C.ar      1 <0>         0.1620
     22 C17        -2.6555    1.3256   -1.5046 C.ar      1 <0>        -0.1301
     23 C18        -3.9158    1.6704   -1.9636 C.ar      1 <0>        -0.0737
     24 C19        -5.0430    0.9315   -1.6503 C.ar      1 <0>        -0.1357
     25 C20        -4.9749   -0.2010   -0.8555 C.ar      1 <0>        -0.0503
     26 C21        -3.7134   -0.5626   -0.3834 C.ar      1 <0>        -0.1044
     27 C22        -3.2655   -1.6685    0.4924 C.ar      1 <0>        -0.0362
     28 C23        -3.9045   -2.7331    1.1195 C.ar      1 <0>        -0.0289
     29 C24        -3.1819   -3.6452    1.8815 C.ar      1 <0>        -0.1255
     30 C25        -4.1160   -4.6505    2.4114 C.2       1 <0>         0.5633
     31 O2         -3.7988   -5.5888    3.1172 O.2       1 <0>        -0.5106
     32 N3         -5.3694   -4.3854    2.0058 N.am      1 <0>        -0.7162
     33 C26        -5.3459   -3.1769    1.1740 C.3       1 <0>         0.1359
     34 N4         -0.3065   -2.7008   -1.0194 N.4       1 <0>        -0.5253
     35 C27         0.0148   -4.1335   -0.9747 C.3       1 <0>        -0.0497
     36 O3         -0.3352   -0.2957   -2.5564 O.3       1 <0>        -0.3613
     37 C28         0.3074   -0.0892   -3.8159 C.3       1 <0>         0.0162
     38 H3          0.8308    2.0068    0.0247 H         1 <0>         0.0984
     39 H4         -0.3256    1.8817   -1.3227 H         1 <0>         0.1037
     40 H5         -0.9185    1.9799    0.3528 H         1 <0>         0.0921
     41 H6          2.1400   -3.1098    0.0419 H         1 <0>         0.1233
     42 H7          2.7852   -1.4878   -0.3076 H         1 <0>         0.1455
     43 H8          1.9835   -1.4379    1.9183 H         1 <0>         0.1550
     44 H9          2.6113   -3.5296    2.8282 H         1 <0>         0.1364
     45 H10         2.5093   -5.5494    4.2456 H         1 <0>         0.1359
     46 H11         0.4102   -6.6943    4.6846 H         1 <0>         0.1352
     47 H12        -1.7231   -5.8814    3.7271 H         1 <0>         0.1602
     48 H13        -1.7841    1.9115   -1.7569 H         1 <0>         0.1438
     49 H14        -4.0225    2.5459   -2.5869 H         1 <0>         0.1335
     50 H15        -6.0015    1.2460   -2.0361 H         1 <0>         0.1333
     51 H16        -5.8562   -0.7761   -0.6128 H         1 <0>         0.1416
     52 H17        -6.1577   -4.9060    2.2257 H         1 <0>         0.4348
     53 H18        -5.9609   -2.3989    1.6262 H         1 <0>         0.1115
     54 H19        -5.7062   -3.4047    0.1708 H         1 <0>         0.1104
     55 H20        -0.6946   -2.4153   -0.1328 H         1 <0>         0.4186
     56 H21         0.7414   -4.3184   -0.1836 H         1 <0>         0.1191
     57 H22        -0.8927   -4.7033   -0.7750 H         1 <0>         0.1256
     58 H23         0.4340   -4.4418   -1.9324 H         1 <0>         0.1255
     59 H24        -0.4469    0.0185   -4.5954 H         1 <0>         0.1100
     60 H25         0.9142    0.8152   -3.7703 H         1 <0>         0.0633
     61 H26         0.9451   -0.9435   -4.0429 H         1 <0>         0.0514
     62 H27        -0.9792   -2.5296   -1.7517 H         1 <0>         0.4274
@<TRIPOS>BOND
     1    1    2 1
     2    1   38 1
     3    1   39 1
     4    1   40 1
     5    2    9 1
     6    2   20 1
     7    2    3 1
     8    3    4 1
     9    3    5 1
    10    3   36 1
    11    5    6 1
    12    5    7 1
    13    5   34 1
    14    7    8 1
    15    7   41 1
    16    7   42 1
    17    8    9 1
    18    8   10 1
    19    8   43 1
    20   10   18 1
    21   10   11 1
    22   11   16 ar
    23   11   12 ar
    24   12   13 ar
    25   12   44 1
    26   13   14 ar
    27   13   45 1
    28   14   15 ar
    29   14   46 1
    30   15   16 ar
    31   15   47 1
    32   16   17 1
    33   17   29 ar
    34   17   18 ar
    35   18   19 ar
    36   19   27 ar
    37   19   20 1
    38   20   21 1
    39   21   26 ar
    40   21   22 ar
    41   22   23 ar
    42   22   48 1
    43   23   24 ar
    44   23   49 1
    45   24   25 ar
    46   24   50 1
    47   25   26 ar
    48   25   51 1
    49   26   27 1
    50   27   28 ar
    51   28   33 1
    52   28   29 ar
    53   29   30 1
    54   30   31 2
    55   30   32 am
    56   32   33 1
    57   32   52 1
    58   33   53 1
    59   33   54 1
    60   34   35 1
    61   34   55 1
    62   34   62 1
    63   35   56 1
    64   35   57 1
    65   35   58 1
    66   36   37 1
    67   37   59 1
    68   37   60 1
    69   37   61 1
@<TRIPOS>MOLECULE
CHEMBL162__1
   61    68     0     0     0
SMALL
USER_CHARGES

@<TRIPOS>ATOM
      1 C1         -0.0567    1.5513   -0.0894 C.3       1 <0>        -0.1681
      2 C2         -0.0278    0.0218   -0.0599 C.3       1 <0>         0.3623
      3 C3          0.5811   -0.4397   -1.3782 C.3       1 <0>         0.0679
      4 H1          1.4914    0.1262   -1.5761 H         1 <0>         0.0865
      5 C4          0.9165   -1.9328   -1.2885 C.3       1 <0>         0.0550
      6 H2          1.3622   -2.2669   -2.2254 H         1 <0>         0.0644
      7 C5          1.9146   -2.1282   -0.1417 C.3       1 <0>        -0.1713
      8 C6          1.2889   -1.6457    1.1613 C.3       1 <0>         0.3303
      9 O1          0.7459   -0.3574    1.0554 O.3       1 <0>        -0.3432
     10 N1          0.3079   -2.6158    1.6500 N.pl3     1 <0>        -0.5147
     11 C7          0.5725   -3.7353    2.3988 C.ar      1 <0>         0.1480
     12 C8          1.7775   -4.2425    2.8844 C.ar      1 <0>        -0.1567
     13 C9          1.7179   -5.4120    3.6229 C.ar      1 <0>        -0.0771
     14 C10         0.5239   -6.0644    3.8782 C.ar      1 <0>        -0.1623
     15 C11        -0.6857   -5.5826    3.4081 C.ar      1 <0>        -0.0380
     16 C12        -0.6461   -4.4031    2.6615 C.ar      1 <0>        -0.1052
     17 C13        -1.6998   -3.6196    2.0235 C.ar      1 <0>        -0.0146
     18 C14        -1.0625   -2.5326    1.4212 C.ar      1 <0>         0.1328
     19 C15        -1.8127   -1.5778    0.7254 C.ar      1 <0>         0.2189
     20 N2         -1.4156   -0.4323    0.0413 N.pl3     1 <0>        -0.4798
     21 C16        -2.5171    0.1927   -0.4937 C.ar      1 <0>         0.1719
     22 C17        -2.6230    1.3676   -1.2371 C.ar      1 <0>        -0.1371
     23 C18        -3.8926    1.7468   -1.6400 C.ar      1 <0>        -0.0918
     24 C19        -5.0181    1.0048   -1.3284 C.ar      1 <0>        -0.1543
     25 C20        -4.9390   -0.1657   -0.5916 C.ar      1 <0>        -0.0609
     26 C21        -3.6680   -0.5623   -0.1765 C.ar      1 <0>        -0.0961
     27 C22        -3.2066   -1.7140    0.6307 C.ar      1 <0>        -0.0806
     28 C23        -3.8384   -2.8014    1.2249 C.ar      1 <0>        -0.0396
     29 C24        -3.1037   -3.7566    1.9194 C.ar      1 <0>        -0.1488
     30 C25        -4.0327   -4.7771    2.4285 C.2       1 <0>         0.5678
     31 O2         -3.7051   -5.7517    3.0781 O.2       1 <0>        -0.5303
     32 N3         -5.2947   -4.4802    2.0748 N.am      1 <0>        -0.7263
     33 C26        -5.2825   -3.2330    1.3021 C.3       1 <0>         0.1443
     34 N4         -0.3065   -2.7008   -1.0194 N.3       1 <0>        -0.6725
     35 C27        -0.9816   -3.0711   -2.2704 C.3       1 <0>         0.0321
     36 O3         -0.3541   -0.2236   -2.4368 O.3       1 <0>        -0.3500
     37 C28         0.2525    0.0376   -3.7040 C.3       1 <0>         0.0254
     38 H3          0.9143    1.9390    0.2190 H         1 <0>         0.0847
     39 H4         -0.2789    1.8910   -1.1010 H         1 <0>         0.0945
     40 H5         -0.8258    1.9134    0.5927 H         1 <0>         0.0811
     41 H6          2.1661   -3.1852   -0.0547 H         1 <0>         0.0955
     42 H7          2.8189   -1.5546   -0.3450 H         1 <0>         0.1024
     43 H8          2.0854   -1.6051    1.9042 H         1 <0>         0.1256
     44 H9          2.7165   -3.7447    2.6923 H         1 <0>         0.1264
     45 H10         2.6343   -5.8299    4.0129 H         1 <0>         0.1227
     46 H11         0.5364   -6.9739    4.4603 H         1 <0>         0.1222
     47 H12        -1.6153   -6.0942    3.6091 H         1 <0>         0.1517
     48 H13        -1.7529    1.9564   -1.4875 H         1 <0>         0.1345
     49 H14        -4.0081    2.6526   -2.2167 H         1 <0>         0.1197
     50 H15        -5.9842    1.3471   -1.6689 H         1 <0>         0.1193
     51 H16        -5.8191   -0.7431   -0.3501 H         1 <0>         0.1299
     52 H17        -6.0819   -5.0031    2.2935 H         1 <0>         0.4244
     53 H18        -5.8747   -2.4718    1.8101 H         1 <0>         0.0969
     54 H19        -5.6755   -3.4081    0.3006 H         1 <0>         0.0963
     55 H20        -0.1054   -3.5172   -0.4616 H         1 <0>         0.3444
     56 H21        -1.8838   -3.6387   -2.0422 H         1 <0>         0.0645
     57 H22        -1.2495   -2.1685   -2.8197 H         1 <0>         0.0818
     58 H23        -0.3126   -3.6808   -2.8776 H         1 <0>         0.0150
     59 H24        -0.5237    0.1905   -4.4538 H         1 <0>         0.0929
     60 H25         0.8707    0.9325   -3.6333 H         1 <0>         0.0448
     61 H26         0.8732   -0.8111   -3.9915 H         1 <0>         0.0400
@<TRIPOS>BOND
     1    1    2 1
     2    1   38 1
     3    1   39 1
     4    1   40 1
     5    2    9 1
     6    2   20 1
     7    2    3 1
     8    3    4 1
     9    3    5 1
    10    3   36 1
    11    5    6 1
    12    5    7 1
    13    5   34 1
    14    7    8 1
    15    7   41 1
    16    7   42 1
    17    8    9 1
    18    8   10 1
    19    8   43 1
    20   10   18 1
    21   10   11 1
    22   11   16 ar
    23   11   12 ar
    24   12   13 ar
    25   12   44 1
    26   13   14 ar
    27   13   45 1
    28   14   15 ar
    29   14   46 1
    30   15   16 ar
    31   15   47 1
    32   16   17 1
    33   17   29 ar
    34   17   18 ar
    35   18   19 ar
    36   19   27 ar
    37   19   20 1
    38   20   21 1
    39   21   26 ar
    40   21   22 ar
    41   22   23 ar
    42   22   48 1
    43   23   24 ar
    44   23   49 1
    45   24   25 ar
    46   24   50 1
    47   25   26 ar
    48   25   51 1
    49   26   27 1
    50   27   28 ar
    51   28   33 1
    52   28   29 ar
    53   29   30 1
    54   30   31 2
    55   30   32 am
    56   32   33 1
    57   32   52 1
    58   33   53 1
    59   33   54 1
    60   34   35 1
    61   34   55 1
    62   35   56 1
    63   35   57 1
    64   35   58 1
    65   36   37 1
    66   37   59 1
    67   37   60 1
    68   37   61 1
@<TRIPOS>MOLECULE
CHEMBL375840
   46    49     0     0     0
SMALL
USER_CHARGES

@<TRIPOS>ATOM
      1 C1         -0.0484    1.5024    0.0098 C.3       1 <0>        -0.1261
      2 C2         -0.0196   -0.0043    0.0016 C.ar      1 <0>        -0.0268
      3 C3         -0.0179   -0.6868   -1.1985 C.ar      1 <0>        -0.1245
      4 C4          0.0080   -2.0671   -1.2153 C.ar      1 <0>        -0.0695
      5 C5          0.0331   -2.7838   -0.0162 C.ar      1 <0>        -0.1443
      6 C6          0.0320   -2.1029    1.1989 C.ar      1 <0>        -0.0246
      7 C7          0.0111   -0.7080    1.2092 C.ar      1 <0>         0.0067
      8 C8          0.0157    0.0010    2.4534 C.1       1 <0>        -0.1039
      9 C9          0.0195    0.5822    3.4734 C.1       1 <0>        -0.0985
     10 C10         0.0241    1.2911    4.7176 C.ar      1 <0>        -0.0473
     11 C11        -0.0078    2.6880    4.7355 C.ar      1 <0>         0.0092
     12 C12        -0.0017    3.3285    5.9752 C.ar      1 <0>         0.0026
     13 C13         0.0360    2.5513    7.1483 C.ar      1 <0>         0.2464
     14 N1          0.0329    3.4497    8.1936 N.pl3     1 <0>        -0.5884
     15 C14        -0.0049    4.7004    7.6578 C.2       1 <0>         0.2838
     16 N2         -0.0252    4.6305    6.3590 N.2       1 <0>        -0.4853
     17 N3          0.0657    1.2289    7.0815 N.ar      1 <0>        -0.4776
     18 C15         0.0547    0.5927    5.9310 C.ar      1 <0>         0.1705
     19 C16         0.0602   -4.2618   -0.0371 C.2       1 <0>         0.5632
     20 O1          0.0821   -4.8841    1.0070 O.2       1 <0>        -0.5093
     21 N4          0.0608   -4.9192   -1.2136 N.am      1 <0>        -0.6694
     22 C17         0.1843   -6.3121   -1.2362 C.ar      1 <0>         0.1440
     23 C18         0.8885   -6.9319   -2.2607 C.ar      1 <0>        -0.1112
     24 C19         1.0085   -8.3074   -2.2801 C.ar      1 <0>        -0.0995
     25 C20         0.4281   -9.0679   -1.2813 C.ar      1 <0>        -0.0861
     26 C21        -0.2739   -8.4541   -0.2604 C.ar      1 <0>        -0.1641
     27 C22        -0.3920   -7.0782   -0.2315 C.ar      1 <0>        -0.0722
     28 C23        -0.9050   -9.2867    0.8256 C.3       1 <0>         0.5092
     29 F1         -0.6459  -10.6404    0.5855 F         1 <0>        -0.1762
     30 F2         -0.3679   -8.9217    2.0648 F         1 <0>        -0.1724
     31 F3         -2.2873   -9.0711    0.8348 F         1 <0>        -0.1756
     32 H1          0.9720    1.8854   -0.0029 H         1 <0>         0.0818
     33 H2         -0.5818    1.8604   -0.8708 H         1 <0>         0.0767
     34 H3         -0.5562    1.8513    0.9089 H         1 <0>         0.0734
     35 H4         -0.0372   -0.1383   -2.1287 H         1 <0>         0.1393
     36 H5          0.0084   -2.5943   -2.1579 H         1 <0>         0.1308
     37 H6          0.0514   -2.6521    2.1286 H         1 <0>         0.1450
     38 H7         -0.0360    3.2553    3.8169 H         1 <0>         0.1486
     39 H8         -0.0161    5.6175    8.2281 H         1 <0>         0.2291
     40 H9          0.0749   -0.4871    5.9215 H         1 <0>         0.1744
     41 H10        -0.0244   -4.4263   -2.0447 H         1 <0>         0.4144
     42 H11         1.3413   -6.3387   -3.0413 H         1 <0>         0.1374
     43 H12         1.5558   -8.7899   -3.0763 H         1 <0>         0.1417
     44 H13         0.5231  -10.1436   -1.2990 H         1 <0>         0.1415
     45 H14        -0.9364   -6.5990    0.5688 H         1 <0>         0.1512
     46 H15         0.0536    3.2307    9.1383 H         1 <0>         0.4323
@<TRIPOS>BOND
     1    1    2 1
     2    1   32 1
     3    1   33 1
     4    1   34 1
     5    2    7 ar
     6    2    3 ar
     7    3    4 ar
     8    3   35 1
     9    4    5 ar
    10    4   36 1
    11    5    6 ar
    12    5   19 1
    13    6    7 ar
    14    6   37 1
    15    7    8 1
    16    8    9 3
    17    9   10 1
    18   10   18 ar
    19   10   11 ar
    20   11   12 ar
    21   11   38 1
    22   12   16 1
    23   12   13 ar
    24   13   14 1
    25   13   17 ar
    26   14   15 1
    27   14   46 1
    28   15   16 2
    29   15   39 1
    30   17   18 ar
    31   18   40 1
    32   19   20 2
    33   19   21 am
    34   21   22 1
    35   21   41 1
    36   22   27 ar
    37   22   23 ar
    38   23   24 ar
    39   23   42 1
    40   24   25 ar
    41   24   43 1
    42   25   26 ar
    43   25   44 1
    44   26   27 ar
    45   26   28 1
    46   27   45 1
    47   28   29 1
    48   28   30 1
    49   28   31 1
@<TRIPOS>MOLECULE
CHEMBL220874
   45    47     0     0     0
SMALL
USER_CHARGES

@<TRIPOS>ATOM
      1 C1         -0.0484    1.5024    0.0098 C.3       1 <0>        -0.1245
      2 C2         -0.0196   -0.0043    0.0016 C.ar      1 <0>        -0.0284
      3 C3         -0.0178   -0.6868   -1.1985 C.ar      1 <0>        -0.1250
      4 C4          0.0085   -2.0672   -1.2153 C.ar      1 <0>        -0.0713
      5 C5          0.0331   -2.7839   -0.0162 C.ar      1 <0>        -0.1447
      6 C6          0.0315   -2.1031    1.1989 C.ar      1 <0>        -0.0262
      7 C7          0.0111   -0.7080    1.2093 C.ar      1 <0>         0.0123
      8 C8          0.0157    0.0009    2.4535 C.1       1 <0>        -0.1318
      9 C9          0.0195    0.5821    3.4735 C.1       1 <0>        -0.0846
     10 C10         0.0240    1.2910    4.7177 C.ar      1 <0>        -0.1094
     11 C11        -0.0079    2.6940    4.7380 C.ar      1 <0>        -0.0044
     12 C12        -0.0022    3.3299    5.9510 C.ar      1 <0>        -0.2363
     13 C13         0.0350    2.5729    7.1196 C.ar      1 <0>         0.4153
     14 N1          0.0647    1.2491    7.0734 N.ar      1 <0>        -0.5438
     15 C14         0.0546    0.5967    5.9284 C.ar      1 <0>         0.1851
     16 N2          0.0414    3.2149    8.3509 N.pl3     1 <0>        -0.8449
     17 C15         0.0602   -4.2619   -0.0371 C.2       1 <0>         0.5632
     18 O1          0.0816   -4.8842    1.0069 O.2       1 <0>        -0.5097
     19 N3          0.0612   -4.9193   -1.2137 N.am      1 <0>        -0.6696
     20 C16         0.1847   -6.3121   -1.2363 C.ar      1 <0>         0.1443
     21 C17         0.8893   -6.9319   -2.2605 C.ar      1 <0>        -0.1115
     22 C18         1.0098   -8.3073   -2.2797 C.ar      1 <0>        -0.0995
     23 C19         0.4298   -9.0678   -1.2806 C.ar      1 <0>        -0.0863
     24 C20        -0.2722   -8.4540   -0.2598 C.ar      1 <0>        -0.1640
     25 C21        -0.3920   -7.0782   -0.2319 C.ar      1 <0>        -0.0723
     26 C22        -0.9025   -9.2866    0.8268 C.3       1 <0>         0.5091
     27 F1         -0.6426  -10.6402    0.5871 F         1 <0>        -0.1762
     28 F2         -0.3652   -8.9208    2.0656 F         1 <0>        -0.1725
     29 F3         -2.2849   -9.0718    0.8362 F         1 <0>        -0.1756
     30 H1          0.9721    1.8854   -0.0029 H         1 <0>         0.0802
     31 H2         -0.5817    1.8604   -0.8708 H         1 <0>         0.0754
     32 H3         -0.5562    1.8513    0.9089 H         1 <0>         0.0738
     33 H4         -0.0375   -0.1383   -2.1287 H         1 <0>         0.1385
     34 H5          0.0096   -2.5943   -2.1579 H         1 <0>         0.1301
     35 H6          0.0502   -2.6523    2.1286 H         1 <0>         0.1435
     36 H7         -0.0361    3.2592    3.8182 H         1 <0>         0.1384
     37 H8         -0.0258    4.4085    6.0009 H         1 <0>         0.1375
     38 H9          0.0745   -0.4831    5.9267 H         1 <0>         0.1622
     39 H10         0.0201    4.1838    8.3928 H         1 <0>         0.4109
     40 H11         0.0672    2.6946    9.1691 H         1 <0>         0.4069
     41 H12        -0.0237   -4.4263   -2.0448 H         1 <0>         0.4143
     42 H13         1.3422   -6.3386   -3.0412 H         1 <0>         0.1373
     43 H14         1.5572   -8.7898   -3.0759 H         1 <0>         0.1417
     44 H15         0.5252  -10.1434   -1.2981 H         1 <0>         0.1414
     45 H16        -0.9367   -6.5991    0.5682 H         1 <0>         0.1511
@<TRIPOS>BOND
     1    1    2 1
     2    1   30 1
     3    1   31 1
     4    1   32 1
     5    2    7 ar
     6    2    3 ar
     7    3    4 ar
     8    3   33 1
     9    4    5 ar
    10    4   34 1
    11    5    6 ar
    12    5   17 1
    13    6    7 ar
    14    6   35 1
    15    7    8 1
    16    8    9 3
    17    9   10 1
    18   10   15 ar
    19   10   11 ar
    20   11   12 ar
    21   11   36 1
    22   12   13 ar
    23   12   37 1
    24   13   14 ar
    25   13   16 1
    26   14   15 ar
    27   15   38 1
    28   16   39 1
    29   16   40 1
    30   17   18 2
    31   17   19 am
    32   19   20 1
    33   19   41 1
    34   20   25 ar
    35   20   21 ar
    36   21   22 ar
    37   21   42 1
    38   22   23 ar
    39   22   43 1
    40   23   24 ar
    41   23   44 1
    42   24   25 ar
    43   24   26 1
    44   25   45 1
    45   26   27 1
    46   26   28 1
    47   26   29 1
@<TRIPOS>MOLECULE
CHEMBL220874__1
   46    48     0     0     0
SMALL
USER_CHARGES

@<TRIPOS>ATOM
      1 C1         -0.0484    1.5024    0.0098 C.3       1 <0>        -0.1273
      2 C2         -0.0196   -0.0043    0.0016 C.ar      1 <0>        -0.0173
      3 C3         -0.0178   -0.6868   -1.1985 C.ar      1 <0>        -0.1244
      4 C4          0.0085   -2.0672   -1.2153 C.ar      1 <0>        -0.0540
      5 C5          0.0331   -2.7839   -0.0162 C.ar      1 <0>        -0.1415
      6 C6          0.0315   -2.1031    1.1989 C.ar      1 <0>        -0.0144
      7 C7          0.0111   -0.7080    1.2093 C.ar      1 <0>        -0.0308
      8 C8          0.0157    0.0009    2.4535 C.1       1 <0>        -0.0080
      9 C9          0.0195    0.5821    3.4735 C.1       1 <0>        -0.1771
     10 C10         0.0240    1.2910    4.7177 C.ar      1 <0>         0.0024
     11 C11        -0.0079    2.6940    4.7380 C.ar      1 <0>         0.0489
     12 C12        -0.0022    3.3299    5.9510 C.ar      1 <0>        -0.1849
     13 C13         0.0350    2.5729    7.1196 C.ar      1 <0>         0.4538
     14 N1          0.0647    1.2491    7.0734 N.ar      1 <0>        -0.4964
     15 C14         0.0546    0.5967    5.9284 C.ar      1 <0>         0.1574
     16 N2          0.0414    3.2149    8.3509 N.pl3     1 <0>        -0.8153
     17 C15         0.0602   -4.2619   -0.0371 C.2       1 <0>         0.5612
     18 O1          0.0816   -4.8842    1.0069 O.2       1 <0>        -0.5091
     19 N3          0.0612   -4.9193   -1.2137 N.am      1 <0>        -0.6662
     20 C16         0.1847   -6.3121   -1.2363 C.ar      1 <0>         0.1382
     21 C17         0.8893   -6.9319   -2.2605 C.ar      1 <0>        -0.1087
     22 C18         1.0098   -8.3073   -2.2797 C.ar      1 <0>        -0.0981
     23 C19         0.4298   -9.0678   -1.2806 C.ar      1 <0>        -0.0820
     24 C20        -0.2722   -8.4540   -0.2598 C.ar      1 <0>        -0.1642
     25 C21        -0.3920   -7.0782   -0.2319 C.ar      1 <0>        -0.0715
     26 C22        -0.9025   -9.2866    0.8268 C.3       1 <0>         0.5092
     27 F1         -0.6426  -10.6402    0.5871 F         1 <0>        -0.1742
     28 F2         -0.3652   -8.9208    2.0656 F         1 <0>        -0.1735
     29 F3         -2.2849   -9.0718    0.8362 F         1 <0>        -0.1755
     30 H1          0.9721    1.8854   -0.0029 H         1 <0>         0.0844
     31 H2         -0.5817    1.8604   -0.8708 H         1 <0>         0.0819
     32 H3         -0.5562    1.8513    0.9089 H         1 <0>         0.0689
     33 H4         -0.0375   -0.1383   -2.1287 H         1 <0>         0.1447
     34 H5          0.0096   -2.5943   -2.1579 H         1 <0>         0.1366
     35 H6          0.0502   -2.6523    2.1286 H         1 <0>         0.1468
     36 H7         -0.0361    3.2592    3.8182 H         1 <0>         0.1787
     37 H8         -0.0258    4.4085    6.0009 H         1 <0>         0.1866
     38 H9          0.0745   -0.4831    5.9267 H         1 <0>         0.2114
     39 H10         0.0201    4.1838    8.3928 H         1 <0>         0.4427
     40 H11         0.0672    2.6946    9.1691 H         1 <0>         0.4234
     41 H12        -0.0237   -4.4263   -2.0448 H         1 <0>         0.4146
     42 H13         1.3422   -6.3386   -3.0412 H         1 <0>         0.1382
     43 H14         1.5572   -8.7898   -3.0759 H         1 <0>         0.1438
     44 H15         0.5252  -10.1434   -1.2981 H         1 <0>         0.1435
     45 H16        -0.9367   -6.5991    0.5682 H         1 <0>         0.1499
     46 H17         0.0906    0.7475    7.9032 H         1 <0>         0.4472
@<TRIPOS>BOND
     1    1    2 1
     2    1   30 1
     3    1   31 1
     4    1   32 1
     5    2    7 ar
     6    2    3 ar
     7    3    4 ar
     8    3   33 1
     9    4    5 ar
    10    4   34 1
    11    5    6 ar
    12    5   17 1
    13    6    7 ar
    14    6   35 1
    15    7    8 1
    16    8    9 3
    17    9   10 1
    18   10   15 ar
    19   10   11 ar
    20   11   12 ar
    21   11   36 1
    22   12   13 ar
    23   12   37 1
    24   13   14 ar
    25   13   16 1
    26   14   15 ar
    27   14   46 1
    28   15   38 1
    29   16   39 1
    30   16   40 1
    31   17   18 2
    32   17   19 am
    33   19   20 1
    34   19   41 1
    35   20   25 ar
    36   20   21 ar
    37   21   22 ar
    38   21   42 1
    39   22   23 ar
    40   22   43 1
    41   23   24 ar
    42   23   44 1
    43   24   25 ar
    44   24   26 1
    45   25   45 1
    46   26   27 1
    47   26   28 1
    48   26   29 1
@<TRIPOS>MOLECULE
CHEMBL1076197
   84    89     0     0     0
SMALL
USER_CHARGES

@<TRIPOS>ATOM
      1 C1          2.9408    0.5386   -0.7209 C.3       1 <0>        -0.1164
      2 C2          2.0038   -0.3918    0.0054 C.ar      1 <0>        -0.0662
      3 C3          0.6384   -0.2875   -0.1891 C.ar      1 <0>        -0.1327
      4 C4         -0.2246   -1.1389    0.4757 C.ar      1 <0>        -0.0965
      5 C5          0.2746   -2.0971    1.3362 C.ar      1 <0>        -0.1237
      6 C6          1.6450   -2.2048    1.5334 C.ar      1 <0>         0.1488
      7 C7          2.5097   -1.3512    0.8600 C.ar      1 <0>        -0.1446
      8 N1          2.1537   -3.1735    2.4043 N.am      1 <0>        -0.6720
      9 C8          1.5685   -4.3851    2.4805 C.2       1 <0>         0.5586
     10 O1          0.6599   -4.6699    1.7248 O.2       1 <0>        -0.5029
     11 C9          2.0315   -5.3679    3.4831 C.ar      1 <0>        -0.1116
     12 C10         3.0711   -5.0412    4.3561 C.ar      1 <0>        -0.1080
     13 C11         3.5015   -5.9602    5.2910 C.ar      1 <0>        -0.0977
     14 C12         2.9068   -7.2058    5.3676 C.ar      1 <0>        -0.1009
     15 C13         1.8713   -7.5410    4.5033 C.ar      1 <0>         0.1667
     16 C14         1.4276   -6.6224    3.5639 C.ar      1 <0>        -0.0824
     17 N2          1.2736   -8.8026    4.5841 N.pl3     1 <0>        -0.6365
     18 C15         0.4868   -9.2609    3.5475 C.2       1 <0>         0.5369
     19 N3          0.3244   -8.6522    2.3998 N.2       1 <0>        -0.4986
     20 C16        -0.5125   -9.3769    1.6110 C.ar      1 <0>         0.0771
     21 C17        -1.0129   -9.1920    0.3198 C.ar      1 <0>        -0.0709
     22 C18        -1.8660  -10.1265   -0.2235 C.ar      1 <0>        -0.1117
     23 C19        -2.2329  -11.2502    0.5018 C.ar      1 <0>        -0.1051
     24 C20        -1.7476  -11.4470    1.7785 C.ar      1 <0>        -0.0903
     25 C21        -0.8872  -10.5170    2.3406 C.ar      1 <0>         0.0574
     26 N4         -0.2368  -10.4237    3.5628 N.pl3     1 <0>        -0.4579
     27 C22        -0.3089  -11.3398    4.6106 C.ar      1 <0>         0.4273
     28 C23        -0.5374  -10.9064    5.9113 C.ar      1 <0>        -0.3069
     29 C24        -0.6013  -11.8611    6.9231 C.ar      1 <0>         0.4601
     30 N5         -0.4424  -13.1454    6.6100 N.ar      1 <0>        -0.5747
     31 C25        -0.2274  -13.5154    5.3641 C.ar      1 <0>         0.3757
     32 N6         -0.1654  -12.6424    4.3792 N.ar      1 <0>        -0.5580
     33 N7         -0.8266  -11.4800    8.2365 N.pl3     1 <0>        -0.7075
     34 C26        -0.9996  -10.0637    8.5689 C.3       1 <0>         0.1218
     35 C27        -1.2322   -9.9178   10.0741 C.3       1 <0>        -0.1299
     36 C28        -1.4129   -8.4387   10.4212 C.3       1 <0>         0.0578
     37 N8         -1.6362   -8.2986   11.8664 N.3       1 <0>        -0.5383
     38 C29        -2.9155   -8.9041   12.2627 C.3       1 <0>         0.0191
     39 C30        -3.0820   -8.7902   13.7796 C.3       1 <0>        -0.0026
     40 N9         -3.0484   -7.3748   14.1711 N.4       1 <0>        -0.3887
     41 C31        -1.7556   -6.7904   13.7908 C.3       1 <0>        -0.0026
     42 C32        -1.5780   -6.8878   12.2740 C.3       1 <0>         0.0250
     43 C33        -3.2264   -7.2649   15.6251 C.3       1 <0>        -0.0461
     44 C34         3.3832   -8.2039    6.3913 C.3       1 <0>        -0.1175
     45 H1          3.2227    0.0971   -1.6767 H         1 <0>         0.0731
     46 H2          2.4433    1.4929   -0.8941 H         1 <0>         0.0692
     47 H3          3.8340    0.6989   -0.1171 H         1 <0>         0.0668
     48 H4          0.2456    0.4609   -0.8614 H         1 <0>         0.1244
     49 H5         -1.2903   -1.0544    0.3222 H         1 <0>         0.1263
     50 H6         -0.4001   -2.7616    1.8554 H         1 <0>         0.1294
     51 H7          3.5762   -1.4350    1.0080 H         1 <0>         0.1251
     52 H8          2.9277   -2.9733    2.9536 H         1 <0>         0.4090
     53 H9          3.5386   -4.0692    4.2994 H         1 <0>         0.1275
     54 H10         4.3060   -5.7056    5.9651 H         1 <0>         0.1354
     55 H11         0.6203   -6.8793    2.8941 H         1 <0>         0.1840
     56 H12         1.4122   -9.3555    5.3689 H         1 <0>         0.4176
     57 H13        -0.7318   -8.3188   -0.2503 H         1 <0>         0.1360
     58 H14        -2.2526   -9.9830   -1.2217 H         1 <0>         0.1350
     59 H15        -2.9030  -11.9757    0.0648 H         1 <0>         0.1340
     60 H16        -2.0376  -12.3238    2.3386 H         1 <0>         0.1234
     61 H17        -0.6618   -9.8564    6.1316 H         1 <0>         0.1445
     62 H18        -0.1022  -14.5651    5.1430 H         1 <0>         0.2113
     63 H19        -0.8698  -12.1510    8.9356 H         1 <0>         0.4137
     64 H20        -0.1037   -9.5117    8.2846 H         1 <0>         0.0710
     65 H21        -1.8584   -9.6659    8.0283 H         1 <0>         0.0694
     66 H22        -2.1281  -10.4698   10.3584 H         1 <0>         0.0747
     67 H23        -0.3734  -10.3157   10.6147 H         1 <0>         0.0886
     68 H24        -0.5170   -7.8867   10.1369 H         1 <0>         0.0942
     69 H25        -2.2716   -8.0409    9.8806 H         1 <0>         0.0523
     70 H26        -3.7339   -8.3823   11.7668 H         1 <0>         0.0623
     71 H27        -2.9255   -9.9550   11.9737 H         1 <0>         0.1248
     72 H28        -4.0367   -9.2260   14.0740 H         1 <0>         0.1363
     73 H29        -2.2709   -9.3236   14.2753 H         1 <0>         0.1381
     74 H30        -1.7269   -5.7437   14.0935 H         1 <0>         0.1371
     75 H31        -0.9513   -7.3341   14.2864 H         1 <0>         0.1382
     76 H32        -0.6122   -6.4676   11.9932 H         1 <0>         0.1250
     77 H33        -2.3744   -6.3328   11.7782 H         1 <0>         0.0622
     78 H34        -2.4235   -7.8011   16.1310 H         1 <0>         0.1235
     79 H35        -3.2015   -6.2147   15.9158 H         1 <0>         0.1250
     80 H36        -4.1863   -7.6973   15.9074 H         1 <0>         0.1247
     81 H37         2.8160   -8.0774    7.3134 H         1 <0>         0.0715
     82 H38         3.2358   -9.2142    6.0097 H         1 <0>         0.0594
     83 H39         4.4424   -8.0419    6.5911 H         1 <0>         0.0803
     84 H40        -3.7921   -6.8789   13.7031 H         1 <0>         0.4228
@<TRIPOS>BOND
     1    1    2 1
     2    1   45 1
     3    1   46 1
     4    1   47 1
     5    2    7 ar
     6    2    3 ar
     7    3    4 ar
     8    3   48 1
     9    4    5 ar
    10    4   49 1
    11    5    6 ar
    12    5   50 1
    13    6    7 ar
    14    6    8 1
    15    7   51 1
    16    8    9 am
    17    8   52 1
    18    9   10 2
    19    9   11 1
    20   11   16 ar
    21   11   12 ar
    22   12   13 ar
    23   12   53 1
    24   13   14 ar
    25   13   54 1
    26   14   15 ar
    27   14   44 1
    28   15   16 ar
    29   15   17 1
    30   16   55 1
    31   17   18 1
    32   17   56 1
    33   18   26 1
    34   18   19 2
    35   19   20 1
    36   20   25 ar
    37   20   21 ar
    38   21   22 ar
    39   21   57 1
    40   22   23 ar
    41   22   58 1
    42   23   24 ar
    43   23   59 1
    44   24   25 ar
    45   24   60 1
    46   25   26 1
    47   26   27 1
    48   27   32 ar
    49   27   28 ar
    50   28   29 ar
    51   28   61 1
    52   29   30 ar
    53   29   33 1
    54   30   31 ar
    55   31   32 ar
    56   31   62 1
    57   33   34 1
    58   33   63 1
    59   34   35 1
    60   34   64 1
    61   34   65 1
    62   35   36 1
    63   35   66 1
    64   35   67 1
    65   36   37 1
    66   36   68 1
    67   36   69 1
    68   37   42 1
    69   37   38 1
    70   38   39 1
    71   38   70 1
    72   38   71 1
    73   39   40 1
    74   39   72 1
    75   39   73 1
    76   40   41 1
    77   40   43 1
    78   40   84 1
    79   41   42 1
    80   41   74 1
    81   41   75 1
    82   42   76 1
    83   42   77 1
    84   43   78 1
    85   43   79 1
    86   43   80 1
    87   44   81 1
    88   44   82 1
    89   44   83 1
@<TRIPOS>MOLECULE
CHEMBL1076197__1
   84    89     0     0     0
SMALL
USER_CHARGES

@<TRIPOS>ATOM
      1 C1          2.9408    0.5386   -0.7209 C.3       1 <0>        -0.1167
      2 C2          2.0038   -0.3918    0.0054 C.ar      1 <0>        -0.0659
      3 C3          0.6384   -0.2875   -0.1891 C.ar      1 <0>        -0.1320
      4 C4         -0.2246   -1.1389    0.4757 C.ar      1 <0>        -0.0964
      5 C5          0.2746   -2.0971    1.3362 C.ar      1 <0>        -0.1235
      6 C6          1.6450   -2.2048    1.5334 C.ar      1 <0>         0.1476
      7 C7          2.5097   -1.3512    0.8600 C.ar      1 <0>        -0.1443
      8 N1          2.1537   -3.1735    2.4043 N.am      1 <0>        -0.6714
      9 C8          1.5685   -4.3851    2.4805 C.2       1 <0>         0.5578
     10 O1          0.6599   -4.6699    1.7248 O.2       1 <0>        -0.5024
     11 C9          2.0315   -5.3679    3.4831 C.ar      1 <0>        -0.1095
     12 C10         3.0711   -5.0412    4.3561 C.ar      1 <0>        -0.1073
     13 C11         3.5015   -5.9602    5.2910 C.ar      1 <0>        -0.0973
     14 C12         2.9068   -7.2058    5.3676 C.ar      1 <0>        -0.1034
     15 C13         1.8713   -7.5410    4.5033 C.ar      1 <0>         0.1660
     16 C14         1.4276   -6.6224    3.5639 C.ar      1 <0>        -0.0825
     17 N2          1.2736   -8.8026    4.5841 N.pl3     1 <0>        -0.6370
     18 C15         0.4868   -9.2609    3.5475 C.2       1 <0>         0.5350
     19 N3          0.3244   -8.6522    2.3998 N.2       1 <0>        -0.4961
     20 C16        -0.5125   -9.3769    1.6110 C.ar      1 <0>         0.0768
     21 C17        -1.0129   -9.1920    0.3198 C.ar      1 <0>        -0.0698
     22 C18        -1.8660  -10.1265   -0.2235 C.ar      1 <0>        -0.1107
     23 C19        -2.2329  -11.2502    0.5018 C.ar      1 <0>        -0.1032
     24 C20        -1.7476  -11.4470    1.7785 C.ar      1 <0>        -0.0910
     25 C21        -0.8872  -10.5170    2.3406 C.ar      1 <0>         0.0569
     26 N4         -0.2368  -10.4237    3.5628 N.pl3     1 <0>        -0.4589
     27 C22        -0.3089  -11.3398    4.6106 C.ar      1 <0>         0.4305
     28 C23        -0.5374  -10.9064    5.9113 C.ar      1 <0>        -0.3072
     29 C24        -0.6013  -11.8611    6.9231 C.ar      1 <0>         0.4591
     30 N5         -0.4424  -13.1454    6.6100 N.ar      1 <0>        -0.5723
     31 C25        -0.2274  -13.5154    5.3641 C.ar      1 <0>         0.3782
     32 N6         -0.1654  -12.6424    4.3792 N.ar      1 <0>        -0.5541
     33 N7         -0.8266  -11.4800    8.2365 N.pl3     1 <0>        -0.7120
     34 C26        -0.9996  -10.0637    8.5689 C.3       1 <0>         0.1271
     35 C27        -1.2322   -9.9178   10.0741 C.3       1 <0>        -0.1629
     36 C28        -1.4129   -8.4387   10.4212 C.3       1 <0>        -0.0051
     37 N8         -1.6362   -8.2986   11.8664 N.4       1 <0>        -0.3858
     38 C29        -2.9053   -8.9426   12.2300 C.3       1 <0>        -0.0079
     39 C30        -3.1293   -8.8134   13.7383 C.3       1 <0>         0.0247
     40 N9         -3.1589   -7.3907   14.1061 N.3       1 <0>        -0.5436
     41 C31        -1.9041   -6.7269   13.7254 C.3       1 <0>         0.0239
     42 C32        -1.6902   -6.8733   12.2173 C.3       1 <0>        -0.0022
     43 C33        -3.4290   -7.2233   15.5403 C.3       1 <0>         0.0191
     44 C34         3.3832   -8.2039    6.3913 C.3       1 <0>        -0.1160
     45 H1          3.2227    0.0971   -1.6767 H         1 <0>         0.0733
     46 H2          2.4433    1.4929   -0.8941 H         1 <0>         0.0695
     47 H3          3.8340    0.6989   -0.1171 H         1 <0>         0.0669
     48 H4          0.2456    0.4609   -0.8614 H         1 <0>         0.1248
     49 H5         -1.2903   -1.0544    0.3222 H         1 <0>         0.1267
     50 H6         -0.4001   -2.7616    1.8554 H         1 <0>         0.1292
     51 H7          3.5762   -1.4350    1.0080 H         1 <0>         0.1251
     52 H8          2.9277   -2.9733    2.9536 H         1 <0>         0.4089
     53 H9          3.5386   -4.0692    4.2994 H         1 <0>         0.1282
     54 H10         4.3060   -5.7056    5.9651 H         1 <0>         0.1355
     55 H11         0.6203   -6.8793    2.8941 H         1 <0>         0.1841
     56 H12         1.4122   -9.3555    5.3689 H         1 <0>         0.4164
     57 H13        -0.7318   -8.3188   -0.2503 H         1 <0>         0.1368
     58 H14        -2.2526   -9.9830   -1.2217 H         1 <0>         0.1360
     59 H15        -2.9030  -11.9757    0.0648 H         1 <0>         0.1349
     60 H16        -2.0376  -12.3238    2.3386 H         1 <0>         0.1235
     61 H17        -0.6618   -9.8564    6.1316 H         1 <0>         0.1449
     62 H18        -0.1022  -14.5651    5.1430 H         1 <0>         0.2132
     63 H19        -0.8698  -12.1510    8.9356 H         1 <0>         0.4150
     64 H20        -0.1037   -9.5117    8.2846 H         1 <0>         0.0776
     65 H21        -1.8584   -9.6659    8.0283 H         1 <0>         0.0795
     66 H22        -2.1281  -10.4698   10.3584 H         1 <0>         0.0989
     67 H23        -0.3734  -10.3157   10.6147 H         1 <0>         0.0988
     68 H24        -0.5170   -7.8867   10.1369 H         1 <0>         0.1372
     69 H25        -2.2716   -8.0409    9.8806 H         1 <0>         0.1368
     70 H26        -3.7241   -8.4580   11.6983 H         1 <0>         0.1397
     71 H27        -2.8688   -9.9973   11.9572 H         1 <0>         0.1360
     72 H28        -4.0781   -9.2781   14.0062 H         1 <0>         0.1245
     73 H29        -2.3177   -9.3097   14.2703 H         1 <0>         0.0609
     74 H30        -1.9591   -5.6694   13.9839 H         1 <0>         0.1254
     75 H31        -1.0724   -7.1889   14.2573 H         1 <0>         0.0610
     76 H32        -0.7529   -6.3939   11.9350 H         1 <0>         0.1375
     77 H33        -2.5153   -6.3993   11.6856 H         1 <0>         0.1394
     78 H34        -2.6472   -7.7173   16.1173 H         1 <0>         0.0401
     79 H35        -3.4454   -6.1613   15.7854 H         1 <0>         0.0848
     80 H36        -4.3947   -7.6671   15.7825 H         1 <0>         0.0850
     81 H37         2.8160   -8.0774    7.3134 H         1 <0>         0.0686
     82 H38         3.2358   -9.2142    6.0097 H         1 <0>         0.0592
     83 H39         4.4424   -8.0419    6.5911 H         1 <0>         0.0805
     84 H40        -0.8799   -8.7398   12.3677 H         1 <0>         0.4212
@<TRIPOS>BOND
     1    1    2 1
     2    1   45 1
     3    1   46 1
     4    1   47 1
     5    2    7 ar
     6    2    3 ar
     7    3    4 ar
     8    3   48 1
     9    4    5 ar
    10    4   49 1
    11    5    6 ar
    12    5   50 1
    13    6    7 ar
    14    6    8 1
    15    7   51 1
    16    8    9 am
    17    8   52 1
    18    9   10 2
    19    9   11 1
    20   11   16 ar
    21   11   12 ar
    22   12   13 ar
    23   12   53 1
    24   13   14 ar
    25   13   54 1
    26   14   15 ar
    27   14   44 1
    28   15   16 ar
    29   15   17 1
    30   16   55 1
    31   17   18 1
    32   17   56 1
    33   18   26 1
    34   18   19 2
    35   19   20 1
    36   20   25 ar
    37   20   21 ar
    38   21   22 ar
    39   21   57 1
    40   22   23 ar
    41   22   58 1
    42   23   24 ar
    43   23   59 1
    44   24   25 ar
    45   24   60 1
    46   25   26 1
    47   26   27 1
    48   27   32 ar
    49   27   28 ar
    50   28   29 ar
    51   28   61 1
    52   29   30 ar
    53   29   33 1
    54   30   31 ar
    55   31   32 ar
    56   31   62 1
    57   33   34 1
    58   33   63 1
    59   34   35 1
    60   34   64 1
    61   34   65 1
    62   35   36 1
    63   35   66 1
    64   35   67 1
    65   36   37 1
    66   36   68 1
    67   36   69 1
    68   37   42 1
    69   37   38 1
    70   37   84 1
    71   38   39 1
    72   38   70 1
    73   38   71 1
    74   39   40 1
    75   39   72 1
    76   39   73 1
    77   40   41 1
    78   40   43 1
    79   41   42 1
    80   41   74 1
    81   41   75 1
    82   42   76 1
    83   42   77 1
    84   43   78 1
    85   43   79 1
    86   43   80 1
    87   44   81 1
    88   44   82 1
    89   44   83 1
@<TRIPOS>MOLECULE
CHEMBL29531
   31    34     0     0     0
SMALL
USER_CHARGES

@<TRIPOS>ATOM
      1 C1          0.0027    1.3752    0.2068 C.ar      1 <0>        -0.0979
      2 C2          1.1681    2.0906   -0.0203 C.ar      1 <0>        -0.1094
      3 C3          2.3653    1.4312   -0.2115 C.ar      1 <0>        -0.1070
      4 C4          2.4081    0.0445   -0.1778 C.ar      1 <0>         0.0527
      5 C5          1.2314   -0.6859    0.0517 C.ar      1 <0>         0.1418
      6 C6          0.0254   -0.0008    0.2442 C.ar      1 <0>        -0.0877
      7 N1          1.2491   -2.0447    0.0881 N.2       1 <0>        -0.5485
      8 C7          2.3636   -2.7210   -0.0890 C.2       1 <0>         0.4872
      9 C8          3.6161   -2.0084   -0.3308 C.2       1 <0>        -0.0843
     10 N2          3.6104   -0.6260   -0.3705 N.pl3     1 <0>        -0.3642
     11 C9          4.8738   -0.2333   -0.6061 C.2       1 <0>         0.2049
     12 N3          5.6426   -1.2888   -0.7113 N.2       1 <0>        -0.4679
     13 C10         4.9149   -2.3964   -0.5491 C.2       1 <0>         0.0483
     14 N4          2.3499   -4.1024   -0.0460 N.pl3     1 <0>        -0.6292
     15 C11         1.1358   -4.7861    0.0674 C.ar      1 <0>         0.1060
     16 C12        -0.0219   -4.2720   -0.5126 C.ar      1 <0>        -0.0701
     17 C13        -1.2005   -4.9858   -0.3729 C.ar      1 <0>        -0.1509
     18 C14        -1.1902   -6.1755    0.3318 C.ar      1 <0>         0.0804
     19 N5         -0.0773   -6.6351    0.8695 N.ar      1 <0>        -0.4641
     20 C15         1.0670   -5.9908    0.7552 C.ar      1 <0>         0.0767
     21 H1         -0.9283    1.9007    0.3597 H         1 <0>         0.1376
     22 H2          1.1389    3.1699   -0.0480 H         1 <0>         0.1373
     23 H3          3.2695    1.9948   -0.3879 H         1 <0>         0.1333
     24 H4         -0.8865   -0.5515    0.4219 H         1 <0>         0.1423
     25 H5          5.2035    0.7914   -0.6947 H         1 <0>         0.2180
     26 H6          5.2808   -3.4120   -0.5844 H         1 <0>         0.1876
     27 H7          3.1826   -4.5975   -0.0945 H         1 <0>         0.4260
     28 H8         -0.0009   -3.3398   -1.0574 H         1 <0>         0.1470
     29 H9         -2.1172   -4.6173   -0.8091 H         1 <0>         0.1386
     30 H10        -2.1065   -6.7360    0.4437 H         1 <0>         0.1582
     31 H11         1.9589   -6.4014    1.2049 H         1 <0>         0.1571
@<TRIPOS>BOND
     1    1    6 ar
     2    1    2 ar
     3    1   21 1
     4    2    3 ar
     5    2   22 1
     6    3    4 ar
     7    3   23 1
     8    4   10 1
     9    4    5 ar
    10    5    6 ar
    11    5    7 1
    12    6   24 1
    13    7    8 2
    14    8    9 1
    15    8   14 1
    16    9   13 2
    17    9   10 1
    18   10   11 1
    19   11   12 2
    20   11   25 1
    21   12   13 1
    22   13   26 1
    23   14   15 1
    24   14   27 1
    25   15   20 ar
    26   15   16 ar
    27   16   17 ar
    28   16   28 1
    29   17   18 ar
    30   17   29 1
    31   18   19 ar
    32   18   30 1
    33   19   20 ar
    34   20   31 1
@<TRIPOS>MOLECULE
CHEMBL1079424
   56    60     0     0     0
SMALL
USER_CHARGES

@<TRIPOS>ATOM
      1 C1          2.1955    1.2754    0.6880 C.3       1 <0>        -0.1195
      2 C2          2.3916   -0.2132    0.8171 C.ar      1 <0>        -0.0991
      3 C3          3.1246   -0.8966   -0.1353 C.ar      1 <0>        -0.0965
      4 C4          3.3082   -2.2596   -0.0242 C.ar      1 <0>        -0.1093
      5 C5          2.7532   -2.9534    1.0531 C.ar      1 <0>        -0.1149
      6 C6          2.0142   -2.2641    2.0141 C.ar      1 <0>        -0.0934
      7 C7          1.8398   -0.8934    1.8962 C.ar      1 <0>         0.1654
      8 N1          1.1045   -0.1966    2.8600 N.pl3     1 <0>        -0.6355
      9 C8          0.4110   -0.8882    3.8319 C.2       1 <0>         0.5390
     10 N2          0.2677   -2.1889    3.8725 N.2       1 <0>        -0.4994
     11 C9         -0.4702   -2.5350    4.9604 C.ar      1 <0>         0.0762
     12 C10        -0.9115   -3.7588    5.4697 C.ar      1 <0>        -0.0734
     13 C11        -1.6637   -3.7885    6.6228 C.ar      1 <0>        -0.1115
     14 C12        -1.9871   -2.6122    7.2826 C.ar      1 <0>        -0.1091
     15 C13        -1.5587   -1.3955    6.7923 C.ar      1 <0>        -0.0844
     16 C14        -0.8003   -1.3472    5.6331 C.ar      1 <0>         0.0555
     17 N3         -0.2256   -0.3173    4.9018 N.pl3     1 <0>        -0.4525
     18 C15        -0.2870    1.0429    5.1989 C.ar      1 <0>         0.4346
     19 C16        -0.3425    1.9853    4.1788 C.ar      1 <0>        -0.3264
     20 C17        -0.4027    3.3322    4.5275 C.ar      1 <0>         0.4709
     21 N4         -0.4048    3.6659    5.8164 N.ar      1 <0>        -0.5808
     22 C18        -0.3510    2.7417    6.7537 C.ar      1 <0>         0.3801
     23 N5         -0.2988    1.4577    6.4633 N.ar      1 <0>        -0.5669
     24 N6         -0.4591    4.3107    3.5475 N.pl3     1 <0>        -0.8266
     25 C19         2.9480   -4.4138    1.1741 C.2       1 <0>         0.5627
     26 O1          2.4640   -5.0157    2.1127 O.2       1 <0>        -0.4984
     27 N7          3.6622   -5.0778    0.2439 N.am      1 <0>        -0.6693
     28 C20         3.9275   -6.4371    0.4076 C.ar      1 <0>         0.1943
     29 C21         2.9932   -7.2812    1.0066 C.ar      1 <0>        -0.1817
     30 C22         3.2938   -8.6196    1.1495 C.ar      1 <0>         0.1225
     31 N8          4.4475   -9.1027    0.7283 N.ar      1 <0>        -0.4969
     32 C23         5.3573   -8.3366    0.1567 C.ar      1 <0>         0.1452
     33 C24         5.1313   -6.9883   -0.0286 C.ar      1 <0>        -0.2018
     34 C25         6.6575   -8.9433   -0.3044 C.3       1 <0>        -0.1046
     35 H1          3.0076    1.7944    1.1972 H         1 <0>         0.0773
     36 H2          2.1926    1.5514   -0.3665 H         1 <0>         0.0816
     37 H3          1.2444    1.5571    1.1399 H         1 <0>         0.0569
     38 H4          3.5546   -0.3619   -0.9692 H         1 <0>         0.1367
     39 H5          3.8808   -2.7899   -0.7707 H         1 <0>         0.1267
     40 H6          1.5822   -2.7953    2.8494 H         1 <0>         0.1971
     41 H7          1.0820    0.7730    2.8454 H         1 <0>         0.4199
     42 H8         -0.6639   -4.6785    4.9605 H         1 <0>         0.1356
     43 H9         -2.0047   -4.7348    7.0161 H         1 <0>         0.1338
     44 H10        -2.5782   -2.6487    8.1857 H         1 <0>         0.1335
     45 H11        -1.8140   -0.4830    7.3104 H         1 <0>         0.1299
     46 H12        -0.3388    1.6810    3.1425 H         1 <0>         0.1415
     47 H13        -0.3540    3.0452    7.7902 H         1 <0>         0.2109
     48 H14        -0.4568    4.0595    2.6106 H         1 <0>         0.4144
     49 H15        -0.5008    5.2467    3.7985 H         1 <0>         0.4151
     50 H16         3.9917   -4.6103   -0.5396 H         1 <0>         0.4130
     51 H17         2.0475   -6.8922    1.3541 H         1 <0>         0.1508
     52 H18         2.5760   -9.2808    1.6123 H         1 <0>         0.1606
     53 H19         5.8783   -6.3677   -0.5012 H         1 <0>         0.1368
     54 H20         6.5550   -9.2819   -1.3354 H         1 <0>         0.0795
     55 H21         7.4486   -8.1959   -0.2443 H         1 <0>         0.0744
     56 H22         6.9092   -9.7908    0.3331 H         1 <0>         0.0793
@<TRIPOS>BOND
     1    1    2 1
     2    1   35 1
     3    1   36 1
     4    1   37 1
     5    2    7 ar
     6    2    3 ar
     7    3    4 ar
     8    3   38 1
     9    4    5 ar
    10    4   39 1
    11    5    6 ar
    12    5   25 1
    13    6    7 ar
    14    6   40 1
    15    7    8 1
    16    8    9 1
    17    8   41 1
    18    9   17 1
    19    9   10 2
    20   10   11 1
    21   11   16 ar
    22   11   12 ar
    23   12   13 ar
    24   12   42 1
    25   13   14 ar
    26   13   43 1
    27   14   15 ar
    28   14   44 1
    29   15   16 ar
    30   15   45 1
    31   16   17 1
    32   17   18 1
    33   18   23 ar
    34   18   19 ar
    35   19   20 ar
    36   19   46 1
    37   20   21 ar
    38   20   24 1
    39   21   22 ar
    40   22   23 ar
    41   22   47 1
    42   24   48 1
    43   24   49 1
    44   25   26 2
    45   25   27 am
    46   27   28 1
    47   27   50 1
    48   28   33 ar
    49   28   29 ar
    50   29   30 ar
    51   29   51 1
    52   30   31 ar
    53   30   52 1
    54   31   32 ar
    55   32   33 ar
    56   32   34 1
    57   33   53 1
    58   34   54 1
    59   34   55 1
    60   34   56 1
@<TRIPOS>MOLECULE
CHEMBL1079424__1
   57    61     0     0     0
SMALL
USER_CHARGES

@<TRIPOS>ATOM
      1 C1         -0.7381    1.3256   -0.0213 C.3       1 <0>        -0.1274
      2 C2         -1.8627    0.5079    0.5597 C.ar      1 <0>        -0.0765
      3 C3         -3.0621    0.4049   -0.1201 C.ar      1 <0>        -0.0768
      4 C4         -4.0967   -0.3416    0.4056 C.ar      1 <0>        -0.0901
      5 C5         -3.9341   -0.9967    1.6281 C.ar      1 <0>        -0.0936
      6 C6         -2.7240   -0.8932    2.3137 C.ar      1 <0>        -0.1097
      7 C7         -1.6887   -0.1448    1.7743 C.ar      1 <0>         0.1456
      8 N1         -0.4715   -0.0425    2.4550 N.pl3     1 <0>        -0.6633
      9 C8         -0.2914   -0.7078    3.6502 C.cat     1 <0>         0.6229
     10 N2         -0.1779   -2.0057    3.7795 N.pl3     1 <0>        -0.4770
     11 C9         -0.0120   -2.3229    5.0908 C.ar      1 <0>         0.0546
     12 C10         0.1538   -3.5318    5.7712 C.ar      1 <0>        -0.0752
     13 C11         0.3012   -3.5314    7.1404 C.ar      1 <0>        -0.0709
     14 C12         0.2860   -2.3396    7.8495 C.ar      1 <0>        -0.0656
     15 C13         0.1232   -1.1374    7.1921 C.ar      1 <0>        -0.0669
     16 C14        -0.0261   -1.1192    5.8141 C.ar      1 <0>         0.0940
     17 N3         -0.1986   -0.1090    4.8786 N.pl3     1 <0>        -0.3730
     18 C15        -0.2674    1.2581    5.1400 C.ar      1 <0>         0.4013
     19 C16        -0.3374    2.1728    4.0958 C.ar      1 <0>        -0.3013
     20 C17        -0.4045    3.5280    4.4093 C.ar      1 <0>         0.4766
     21 N4         -0.3992    3.8957    5.6889 N.ar      1 <0>        -0.5617
     22 C18        -0.3318    2.9971    6.6498 C.ar      1 <0>         0.3943
     23 N5         -0.2726    1.7062    6.3931 N.ar      1 <0>        -0.5641
     24 N6         -0.4752    4.4798    3.4042 N.pl3     1 <0>        -0.8151
     25 C19        -5.0410   -1.7966    2.1937 C.2       1 <0>         0.5602
     26 O1         -4.8972   -2.3660    3.2580 O.2       1 <0>        -0.5084
     27 N7         -6.2095   -1.8947    1.5295 N.am      1 <0>        -0.6601
     28 C20        -7.2186   -2.7272    2.0127 C.ar      1 <0>         0.1834
     29 C21        -7.4142   -2.8927    3.3833 C.ar      1 <0>        -0.1825
     30 C22        -8.4236   -3.7247    3.8207 C.ar      1 <0>         0.1257
     31 N8         -9.1976   -4.3594    2.9605 N.ar      1 <0>        -0.4899
     32 C23        -9.0443   -4.2290    1.6563 C.ar      1 <0>         0.1518
     33 C24        -8.0615   -3.4111    1.1381 C.ar      1 <0>        -0.1967
     34 C25        -9.9576   -4.9790    0.7212 C.3       1 <0>        -0.1086
     35 H1         -0.1195    0.6925   -0.6573 H         1 <0>         0.0902
     36 H2         -1.1510    2.1424   -0.6133 H         1 <0>         0.0918
     37 H3         -0.1304    1.7334    0.7865 H         1 <0>         0.0597
     38 H4         -3.1899    0.9107   -1.0657 H         1 <0>         0.1516
     39 H5         -5.0323   -0.4190   -0.1282 H         1 <0>         0.1403
     40 H6         -2.5925   -1.3973    3.2598 H         1 <0>         0.1312
     41 H7          0.2462    0.4962    2.0868 H         1 <0>         0.4444
     42 H8          0.1659   -4.4636    5.2253 H         1 <0>         0.1571
     43 H9          0.4293   -4.4662    7.6659 H         1 <0>         0.1607
     44 H10         0.4019   -2.3527    8.9232 H         1 <0>         0.1609
     45 H11         0.1118   -0.2127    7.7499 H         1 <0>         0.1682
     46 H12        -0.3393    1.8412    3.0680 H         1 <0>         0.1538
     47 H13        -0.3291    3.3279    7.6779 H         1 <0>         0.2226
     48 H14        -0.4782    4.2039    2.4743 H         1 <0>         0.4172
     49 H15        -0.5216    5.4219    3.6307 H         1 <0>         0.4222
     50 H16        -6.3487   -1.3862    0.7152 H         1 <0>         0.4155
     51 H17        -6.7840   -2.3768    4.0926 H         1 <0>         0.1473
     52 H18        -8.5824   -3.8587    4.8805 H         1 <0>         0.1626
     53 H19        -7.9443   -3.3053    0.0697 H         1 <0>         0.1397
     54 H20       -10.8314   -4.3667    0.4982 H         1 <0>         0.0835
     55 H21        -9.4259   -5.2038   -0.2033 H         1 <0>         0.0768
     56 H22       -10.2762   -5.9088    1.1925 H         1 <0>         0.0826
     57 H23        -0.2078   -2.6442    3.0499 H         1 <0>         0.4642
@<TRIPOS>BOND
     1    1    2 1
     2    1   35 1
     3    1   36 1
     4    1   37 1
     5    2    7 ar
     6    2    3 ar
     7    3    4 ar
     8    3   38 1
     9    4    5 ar
    10    4   39 1
    11    5    6 ar
    12    5   25 1
    13    6    7 ar
    14    6   40 1
    15    7    8 1
    16    8    9 1
    17    8   41 1
    18    9   17 1
    19    9   10 2
    20   10   11 1
    21   10   57 1
    22   11   16 ar
    23   11   12 ar
    24   12   13 ar
    25   12   42 1
    26   13   14 ar
    27   13   43 1
    28   14   15 ar
    29   14   44 1
    30   15   16 ar
    31   15   45 1
    32   16   17 1
    33   17   18 1
    34   18   23 ar
    35   18   19 ar
    36   19   20 ar
    37   19   46 1
    38   20   21 ar
    39   20   24 1
    40   21   22 ar
    41   22   23 ar
    42   22   47 1
    43   24   48 1
    44   24   49 1
    45   25   26 2
    46   25   27 am
    47   27   28 1
    48   27   50 1
    49   28   33 ar
    50   28   29 ar
    51   29   30 ar
    52   29   51 1
    53   30   31 ar
    54   30   52 1
    55   31   32 ar
    56   32   33 ar
    57   32   34 1
    58   33   53 1
    59   34   54 1
    60   34   55 1
    61   34   56 1
@<TRIPOS>MOLECULE
CHEMBL1076193
   67    72     0     0     0
SMALL
USER_CHARGES

@<TRIPOS>ATOM
      1 C1          2.2371    1.2924    0.6240 C.3       1 <0>        -0.1203
      2 C2          2.4081   -0.1951    0.7943 C.ar      1 <0>        -0.0972
      3 C3          3.1192   -0.9188   -0.1447 C.ar      1 <0>        -0.0962
      4 C4          3.2801   -2.2811    0.0043 C.ar      1 <0>        -0.1085
      5 C5          2.7238   -2.9334    1.1065 C.ar      1 <0>        -0.1167
      6 C6          2.0069   -2.2034    2.0542 C.ar      1 <0>        -0.0925
      7 C7          1.8554   -0.8339    1.8980 C.ar      1 <0>         0.1657
      8 N1          1.1419   -0.0965    2.8480 N.pl3     1 <0>        -0.6356
      9 C8          0.4459   -0.7472    3.8458 C.2       1 <0>         0.5390
     10 N2          0.2798   -2.0434    3.9254 N.2       1 <0>        -0.5000
     11 C9         -0.4533   -2.3447    5.0297 C.ar      1 <0>         0.0760
     12 C10        -0.9113   -3.5451    5.5783 C.ar      1 <0>        -0.0736
     13 C11        -1.6524   -3.5280    6.7388 C.ar      1 <0>        -0.1110
     14 C12        -1.9483   -2.3276    7.3673 C.ar      1 <0>        -0.1088
     15 C13        -1.5036   -1.1335    6.8377 C.ar      1 <0>        -0.0842
     16 C14        -0.7555   -1.1322    5.6708 C.ar      1 <0>         0.0557
     17 N3         -0.1698   -0.1344    4.9047 N.pl3     1 <0>        -0.4523
     18 C15        -0.2047    1.2348    5.1625 C.ar      1 <0>         0.4343
     19 C16        -0.2540    2.1480    4.1159 C.ar      1 <0>        -0.3264
     20 C17        -0.2879    3.5053    4.4257 C.ar      1 <0>         0.4710
     21 N4         -0.2719    3.8763    5.7043 N.ar      1 <0>        -0.5805
     22 C18        -0.2248    2.9789    6.6676 C.ar      1 <0>         0.3804
     23 N5         -0.1968    1.6863    6.4143 N.ar      1 <0>        -0.5668
     24 N6         -0.3371    4.4558    3.4181 N.pl3     1 <0>        -0.8265
     25 C19         2.8939   -4.3930    1.2681 C.2       1 <0>         0.5650
     26 O1          2.4088   -4.9588    2.2284 O.2       1 <0>        -0.5003
     27 N7          3.5868   -5.0963    0.3507 N.am      1 <0>        -0.6701
     28 C20         3.8295   -6.4589    0.5514 C.ar      1 <0>         0.1804
     29 C21         5.0305   -7.0203    0.1349 C.ar      1 <0>        -0.1079
     30 C22         5.2705   -8.3660    0.3329 C.ar      1 <0>        -0.1332
     31 C23         4.3177   -9.1581    0.9450 C.ar      1 <0>        -0.1032
     32 C24         3.1155   -8.6031    1.3629 C.ar      1 <0>         0.1627
     33 C25         2.8737   -7.2507    1.1717 C.ar      1 <0>        -0.1070
     34 N8          2.1491   -9.4081    1.9831 N.pl3     1 <0>        -0.4135
     35 C26         0.9218   -9.0023    2.4401 C.2       1 <0>        -0.0476
     36 C27         0.3207  -10.0890    2.9606 C.2       1 <0>         0.0097
     37 N9          1.1533  -11.1322    2.8278 N.2       1 <0>        -0.4758
     38 C28         2.2496  -10.7383    2.2392 C.2       1 <0>         0.1936
     39 C29        -1.0504  -10.1266    3.5849 C.3       1 <0>        -0.0704
     40 C30         6.5740   -8.9719   -0.1199 C.3       1 <0>         0.5135
     41 F1          7.3696   -7.9818   -0.7063 F         1 <0>        -0.1730
     42 F2          7.2430   -9.5159    0.9818 F         1 <0>        -0.1708
     43 F3          6.3194   -9.9804   -1.0554 F         1 <0>        -0.1711
     44 H1          3.0634    1.8112    1.1100 H         1 <0>         0.0778
     45 H2          2.2285    1.5379   -0.4380 H         1 <0>         0.0821
     46 H3          1.2958    1.6041    1.0766 H         1 <0>         0.0572
     47 H4          3.5499   -0.4163   -0.9981 H         1 <0>         0.1373
     48 H5          3.8360   -2.8429   -0.7317 H         1 <0>         0.1274
     49 H6          1.5743   -2.7024    2.9087 H         1 <0>         0.1973
     50 H7          1.1363    0.8726    2.8054 H         1 <0>         0.4202
     51 H8         -0.6851   -4.4834    5.0937 H         1 <0>         0.1349
     52 H9         -2.0063   -4.4563    7.1625 H         1 <0>         0.1340
     53 H10        -2.5308   -2.3275    8.2767 H         1 <0>         0.1337
     54 H11        -1.7378   -0.2019    7.3314 H         1 <0>         0.1299
     55 H12        -0.2655    1.8137    3.0890 H         1 <0>         0.1414
     56 H13        -0.2130    3.3123    7.6947 H         1 <0>         0.2110
     57 H14        -0.3481    4.1774    2.4889 H         1 <0>         0.4144
     58 H15        -0.3604    5.3993    3.6420 H         1 <0>         0.4153
     59 H16         3.9172   -4.6575   -0.4488 H         1 <0>         0.4170
     60 H17         5.7767   -6.4039   -0.3443 H         1 <0>         0.1510
     61 H18         4.5083  -10.2100    1.0980 H         1 <0>         0.1458
     62 H19         1.9414   -6.8159    1.5007 H         1 <0>         0.1601
     63 H20         0.5152   -8.0029    2.3919 H         1 <0>         0.1800
     64 H21         3.0960  -11.3645    1.9986 H         1 <0>         0.2109
     65 H22        -1.7929  -10.3472    2.8180 H         1 <0>         0.0707
     66 H23        -1.0793  -10.9005    4.3519 H         1 <0>         0.0730
     67 H24        -1.2707   -9.1592    4.0364 H         1 <0>         0.0717
@<TRIPOS>BOND
     1    1    2 1
     2    1   44 1
     3    1   45 1
     4    1   46 1
     5    2    7 ar
     6    2    3 ar
     7    3    4 ar
     8    3   47 1
     9    4    5 ar
    10    4   48 1
    11    5    6 ar
    12    5   25 1
    13    6    7 ar
    14    6   49 1
    15    7    8 1
    16    8    9 1
    17    8   50 1
    18    9   17 1
    19    9   10 2
    20   10   11 1
    21   11   16 ar
    22   11   12 ar
    23   12   13 ar
    24   12   51 1
    25   13   14 ar
    26   13   52 1
    27   14   15 ar
    28   14   53 1
    29   15   16 ar
    30   15   54 1
    31   16   17 1
    32   17   18 1
    33   18   23 ar
    34   18   19 ar
    35   19   20 ar
    36   19   55 1
    37   20   21 ar
    38   20   24 1
    39   21   22 ar
    40   22   23 ar
    41   22   56 1
    42   24   57 1
    43   24   58 1
    44   25   26 2
    45   25   27 am
    46   27   28 1
    47   27   59 1
    48   28   33 ar
    49   28   29 ar
    50   29   30 ar
    51   29   60 1
    52   30   31 ar
    53   30   40 1
    54   31   32 ar
    55   31   61 1
    56   32   33 ar
    57   32   34 1
    58   33   62 1
    59   34   38 1
    60   34   35 1
    61   35   36 2
    62   35   63 1
    63   36   37 1
    64   36   39 1
    65   37   38 2
    66   38   64 1
    67   39   65 1
    68   39   66 1
    69   39   67 1
    70   40   41 1
    71   40   42 1
    72   40   43 1
@<TRIPOS>MOLECULE
CHEMBL1076193__1
   68    73     0     0     0
SMALL
USER_CHARGES

@<TRIPOS>ATOM
      1 C1          2.2371    1.2924    0.6240 C.3       1 <0>        -0.1244
      2 C2          2.4081   -0.1951    0.7943 C.ar      1 <0>        -0.0891
      3 C3          3.1192   -0.9188   -0.1447 C.ar      1 <0>        -0.0949
      4 C4          3.2801   -2.2811    0.0043 C.ar      1 <0>        -0.1072
      5 C5          2.7238   -2.9334    1.1065 C.ar      1 <0>        -0.1270
      6 C6          2.0069   -2.2034    2.0542 C.ar      1 <0>        -0.0905
      7 C7          1.8554   -0.8339    1.8980 C.ar      1 <0>         0.1671
      8 N1          1.1419   -0.0965    2.8480 N.pl3     1 <0>        -0.6353
      9 C8          0.4459   -0.7472    3.8458 C.2       1 <0>         0.5417
     10 N2          0.2798   -2.0434    3.9254 N.2       1 <0>        -0.5058
     11 C9         -0.4533   -2.3447    5.0297 C.ar      1 <0>         0.0748
     12 C10        -0.9113   -3.5451    5.5783 C.ar      1 <0>        -0.0784
     13 C11        -1.6524   -3.5280    6.7388 C.ar      1 <0>        -0.1110
     14 C12        -1.9483   -2.3276    7.3673 C.ar      1 <0>        -0.1089
     15 C13        -1.5036   -1.1335    6.8377 C.ar      1 <0>        -0.0805
     16 C14        -0.7555   -1.1322    5.6708 C.ar      1 <0>         0.0577
     17 N3         -0.1698   -0.1344    4.9047 N.pl3     1 <0>        -0.4505
     18 C15        -0.2047    1.2348    5.1625 C.ar      1 <0>         0.4304
     19 C16        -0.2540    2.1480    4.1159 C.ar      1 <0>        -0.3263
     20 C17        -0.2879    3.5053    4.4257 C.ar      1 <0>         0.4722
     21 N4         -0.2719    3.8763    5.7043 N.ar      1 <0>        -0.5775
     22 C18        -0.2248    2.9789    6.6676 C.ar      1 <0>         0.3826
     23 N5         -0.1968    1.6863    6.4143 N.ar      1 <0>        -0.5674
     24 N6         -0.3371    4.4558    3.4181 N.pl3     1 <0>        -0.8248
     25 C19         2.8939   -4.3930    1.2681 C.2       1 <0>         0.5743
     26 O1          2.4088   -4.9588    2.2284 O.2       1 <0>        -0.5068
     27 N7          3.5868   -5.0963    0.3507 N.am      1 <0>        -0.6715
     28 C20         3.8295   -6.4589    0.5514 C.ar      1 <0>         0.1904
     29 C21         5.0305   -7.0203    0.1349 C.ar      1 <0>        -0.0739
     30 C22         5.2705   -8.3660    0.3329 C.ar      1 <0>        -0.1303
     31 C23         4.3177   -9.1581    0.9450 C.ar      1 <0>        -0.0832
     32 C24         3.1155   -8.6031    1.3629 C.ar      1 <0>         0.1074
     33 C25         2.8737   -7.2507    1.1717 C.ar      1 <0>        -0.0827
     34 N8          2.1491   -9.4081    1.9831 N.pl3     1 <0>        -0.3480
     35 C26         0.9218   -9.0023    2.4401 C.2       1 <0>         0.0253
     36 C27         0.3207  -10.0890    2.9606 C.2       1 <0>         0.0458
     37 N9          1.1533  -11.1322    2.8278 N.pl3     1 <0>        -0.4683
     38 C28         2.2496  -10.7383    2.2392 C.cat     1 <0>         0.2875
     39 C29        -1.0504  -10.1266    3.5849 C.3       1 <0>        -0.1027
     40 C30         6.5740   -8.9719   -0.1199 C.3       1 <0>         0.5129
     41 F1          7.3696   -7.9818   -0.7063 F         1 <0>        -0.1657
     42 F2          7.2430   -9.5159    0.9818 F         1 <0>        -0.1672
     43 F3          6.3194   -9.9804   -1.0554 F         1 <0>        -0.1674
     44 H1          3.0634    1.8112    1.1100 H         1 <0>         0.0810
     45 H2          2.2285    1.5379   -0.4380 H         1 <0>         0.0847
     46 H3          1.2958    1.6041    1.0766 H         1 <0>         0.0591
     47 H4          3.5499   -0.4163   -0.9981 H         1 <0>         0.1400
     48 H5          3.8360   -2.8429   -0.7317 H         1 <0>         0.1270
     49 H6          1.5743   -2.7024    2.9087 H         1 <0>         0.1976
     50 H7          1.1363    0.8726    2.8054 H         1 <0>         0.4221
     51 H8         -0.6851   -4.4834    5.0937 H         1 <0>         0.1303
     52 H9         -2.0063   -4.4563    7.1625 H         1 <0>         0.1325
     53 H10        -2.5308   -2.3275    8.2767 H         1 <0>         0.1350
     54 H11        -1.7378   -0.2019    7.3314 H         1 <0>         0.1319
     55 H12        -0.2655    1.8137    3.0890 H         1 <0>         0.1409
     56 H13        -0.2130    3.3123    7.6947 H         1 <0>         0.2124
     57 H14        -0.3481    4.1774    2.4889 H         1 <0>         0.4147
     58 H15        -0.3604    5.3993    3.6420 H         1 <0>         0.4168
     59 H16         3.9172   -4.6575   -0.4488 H         1 <0>         0.4238
     60 H17         5.7767   -6.4039   -0.3443 H         1 <0>         0.1641
     61 H18         4.5083  -10.2100    1.0980 H         1 <0>         0.1519
     62 H19         1.9414   -6.8159    1.5007 H         1 <0>         0.1690
     63 H20         0.5152   -8.0029    2.3919 H         1 <0>         0.2260
     64 H21         3.0960  -11.3645    1.9986 H         1 <0>         0.2637
     65 H22        -1.7929  -10.3472    2.8180 H         1 <0>         0.1032
     66 H23        -1.0793  -10.9005    4.3519 H         1 <0>         0.0937
     67 H24        -1.2707   -9.1592    4.0364 H         1 <0>         0.1097
     68 H25         0.9682  -12.0383    3.1203 H         1 <0>         0.4664
@<TRIPOS>BOND
     1    1    2 1
     2    1   44 1
     3    1   45 1
     4    1   46 1
     5    2    7 ar
     6    2    3 ar
     7    3    4 ar
     8    3   47 1
     9    4    5 ar
    10    4   48 1
    11    5    6 ar
    12    5   25 1
    13    6    7 ar
    14    6   49 1
    15    7    8 1
    16    8    9 1
    17    8   50 1
    18    9   17 1
    19    9   10 2
    20   10   11 1
    21   11   16 ar
    22   11   12 ar
    23   12   13 ar
    24   12   51 1
    25   13   14 ar
    26   13   52 1
    27   14   15 ar
    28   14   53 1
    29   15   16 ar
    30   15   54 1
    31   16   17 1
    32   17   18 1
    33   18   23 ar
    34   18   19 ar
    35   19   20 ar
    36   19   55 1
    37   20   21 ar
    38   20   24 1
    39   21   22 ar
    40   22   23 ar
    41   22   56 1
    42   24   57 1
    43   24   58 1
    44   25   26 2
    45   25   27 am
    46   27   28 1
    47   27   59 1
    48   28   33 ar
    49   28   29 ar
    50   29   30 ar
    51   29   60 1
    52   30   31 ar
    53   30   40 1
    54   31   32 ar
    55   31   61 1
    56   32   33 ar
    57   32   34 1
    58   33   62 1
    59   34   38 1
    60   34   35 1
    61   35   36 2
    62   35   63 1
    63   36   37 1
    64   36   39 1
    65   37   38 2
    66   37   68 1
    67   38   64 1
    68   39   65 1
    69   39   66 1
    70   39   67 1
    71   40   41 1
    72   40   42 1
    73   40   43 1
@<TRIPOS>MOLECULE
CHEMBL1076196
   81    86     0     0     0
SMALL
USER_CHARGES

@<TRIPOS>ATOM
      1 C1          2.9274    0.6148   -0.6215 C.3       1 <0>        -0.1168
      2 C2          1.9971   -0.3498    0.0679 C.ar      1 <0>        -0.0652
      3 C3          0.6339   -0.2719   -0.1526 C.ar      1 <0>        -0.1330
      4 C4         -0.2230   -1.1547    0.4783 C.ar      1 <0>        -0.0959
      5 C5          0.2802   -2.1180    1.3308 C.ar      1 <0>        -0.1258
      6 C6          1.6484   -2.1993    1.5539 C.ar      1 <0>         0.1478
      7 C7          2.5071   -1.3141    0.9145 C.ar      1 <0>        -0.1461
      8 N1          2.1611   -3.1730    2.4169 N.am      1 <0>        -0.6706
      9 C8          1.5711   -4.3823    2.4949 C.2       1 <0>         0.5571
     10 O1          0.6505   -4.6586    1.7507 O.2       1 <0>        -0.5012
     11 C9          2.0436   -5.3727    3.4854 C.ar      1 <0>        -0.1093
     12 C10         3.0972   -5.0557    4.3453 C.ar      1 <0>        -0.1091
     13 C11         3.5364   -5.9819    5.2690 C.ar      1 <0>        -0.0980
     14 C12         2.9367   -7.2251    5.3473 C.ar      1 <0>        -0.1045
     15 C13         1.8874   -7.5505    4.4961 C.ar      1 <0>         0.1689
     16 C14         1.4348   -6.6247    3.5682 C.ar      1 <0>        -0.0813
     17 N2          1.2848   -8.8096    4.5787 N.pl3     1 <0>        -0.6372
     18 C15         0.4919   -9.2641    3.5450 C.2       1 <0>         0.5344
     19 N3          0.3277   -8.6544    2.3982 N.2       1 <0>        -0.4974
     20 C16        -0.5154   -9.3751    1.6124 C.ar      1 <0>         0.0761
     21 C17        -1.0200   -9.1875    0.3232 C.ar      1 <0>        -0.0703
     22 C18        -1.8794  -10.1180   -0.2170 C.ar      1 <0>        -0.1111
     23 C19        -2.2485  -11.2403    0.5094 C.ar      1 <0>        -0.1033
     24 C20        -1.7591  -11.4397    1.7841 C.ar      1 <0>        -0.0906
     25 C21        -0.8923  -10.5137    2.3431 C.ar      1 <0>         0.0581
     26 N4         -0.2368  -10.4237    3.5628 N.pl3     1 <0>        -0.4575
     27 C22        -0.3089  -11.3398    4.6106 C.ar      1 <0>         0.4277
     28 C23        -0.5374  -10.9064    5.9113 C.ar      1 <0>        -0.3060
     29 C24        -0.6013  -11.8611    6.9231 C.ar      1 <0>         0.4615
     30 N5         -0.4424  -13.1454    6.6100 N.ar      1 <0>        -0.5727
     31 C25        -0.2274  -13.5154    5.3641 C.ar      1 <0>         0.3773
     32 N6         -0.1654  -12.6424    4.3792 N.ar      1 <0>        -0.5564
     33 N7         -0.8266  -11.4800    8.2365 N.pl3     1 <0>        -0.7093
     34 C26        -0.9996  -10.0637    8.5689 C.3       1 <0>         0.1242
     35 C27        -1.2322   -9.9178   10.0741 C.3       1 <0>         0.0445
     36 N8         -1.4057   -8.4977   10.4074 N.3       1 <0>        -0.5352
     37 C28        -0.1634   -7.7470   10.1766 C.3       1 <0>         0.0177
     38 C29        -0.4025   -6.2658   10.4779 C.3       1 <0>        -0.0034
     39 N9         -0.8348   -6.1135   11.8733 N.4       1 <0>        -0.3884
     40 C30        -2.0893   -6.8483   12.0821 C.3       1 <0>        -0.0030
     41 C31        -1.8643   -8.3343   11.7941 C.3       1 <0>         0.0271
     42 C32        -1.0468   -4.6899   12.1673 C.3       1 <0>        -0.0465
     43 C33         3.4229   -8.2309    6.3587 C.3       1 <0>        -0.1160
     44 H1          3.2383    0.1979   -1.5794 H         1 <0>         0.0735
     45 H2          2.4122    1.5610   -0.7870 H         1 <0>         0.0695
     46 H3          3.8045    0.7831    0.0034 H         1 <0>         0.0668
     47 H4          0.2380    0.4803   -0.8187 H         1 <0>         0.1246
     48 H5         -1.2870   -1.0908    0.3046 H         1 <0>         0.1267
     49 H6         -0.3898   -2.8071    1.8235 H         1 <0>         0.1317
     50 H7          3.5721   -1.3772    1.0828 H         1 <0>         0.1249
     51 H8          2.9414   -2.9782    2.9592 H         1 <0>         0.4087
     52 H9          3.5685   -4.0858    4.2870 H         1 <0>         0.1275
     53 H10         4.3516   -5.7348    5.9329 H         1 <0>         0.1346
     54 H11         0.6168   -6.8741    2.9086 H         1 <0>         0.1833
     55 H12         1.4243   -9.3636    5.3627 H         1 <0>         0.4168
     56 H13        -0.7373   -8.3154   -0.2477 H         1 <0>         0.1362
     57 H14        -2.2692   -9.9725   -1.2136 H         1 <0>         0.1356
     58 H15        -2.9235  -11.9627    0.0747 H         1 <0>         0.1348
     59 H16        -2.0508  -12.3153    2.3450 H         1 <0>         0.1238
     60 H17        -0.6618   -9.8564    6.1316 H         1 <0>         0.1442
     61 H18        -0.1022  -14.5651    5.1430 H         1 <0>         0.2124
     62 H19        -0.8698  -12.1510    8.9356 H         1 <0>         0.4147
     63 H20        -0.1037   -9.5117    8.2846 H         1 <0>         0.0659
     64 H21        -1.8584   -9.6659    8.0283 H         1 <0>         0.0823
     65 H22        -2.1281  -10.4698   10.3584 H         1 <0>         0.1005
     66 H23        -0.3734  -10.3157   10.6147 H         1 <0>         0.0591
     67 H24         0.6197   -8.1295   10.8312 H         1 <0>         0.0652
     68 H25         0.1431   -7.8618    9.1368 H         1 <0>         0.1238
     69 H26         0.5216   -5.7094   10.3210 H         1 <0>         0.1381
     70 H27        -1.1760   -5.8803    9.8137 H         1 <0>         0.1393
     71 H28        -2.4159   -6.7237   13.1145 H         1 <0>         0.1386
     72 H29        -2.8542   -6.4598   11.4097 H         1 <0>         0.1392
     73 H30        -2.7987   -8.8776   11.9346 H         1 <0>         0.1265
     74 H31        -1.1092   -8.7265   12.4755 H         1 <0>         0.0642
     75 H32        -1.8144   -4.2922   11.5035 H         1 <0>         0.1241
     76 H33        -1.3676   -4.5766   13.2029 H         1 <0>         0.1255
     77 H34        -0.1156   -4.1446   12.0137 H         1 <0>         0.1253
     78 H35         2.8695   -8.1067    7.2896 H         1 <0>         0.0673
     79 H36         3.2651   -9.2385    5.9739 H         1 <0>         0.0603
     80 H37         4.4856   -8.0751    6.5442 H         1 <0>         0.0803
     81 H38        -0.1237   -6.4811   12.4876 H         1 <0>         0.4228
@<TRIPOS>BOND
     1    1    2 1
     2    1   44 1
     3    1   45 1
     4    1   46 1
     5    2    7 ar
     6    2    3 ar
     7    3    4 ar
     8    3   47 1
     9    4    5 ar
    10    4   48 1
    11    5    6 ar
    12    5   49 1
    13    6    7 ar
    14    6    8 1
    15    7   50 1
    16    8    9 am
    17    8   51 1
    18    9   10 2
    19    9   11 1
    20   11   16 ar
    21   11   12 ar
    22   12   13 ar
    23   12   52 1
    24   13   14 ar
    25   13   53 1
    26   14   15 ar
    27   14   43 1
    28   15   16 ar
    29   15   17 1
    30   16   54 1
    31   17   18 1
    32   17   55 1
    33   18   26 1
    34   18   19 2
    35   19   20 1
    36   20   25 ar
    37   20   21 ar
    38   21   22 ar
    39   21   56 1
    40   22   23 ar
    41   22   57 1
    42   23   24 ar
    43   23   58 1
    44   24   25 ar
    45   24   59 1
    46   25   26 1
    47   26   27 1
    48   27   32 ar
    49   27   28 ar
    50   28   29 ar
    51   28   60 1
    52   29   30 ar
    53   29   33 1
    54   30   31 ar
    55   31   32 ar
    56   31   61 1
    57   33   34 1
    58   33   62 1
    59   34   35 1
    60   34   63 1
    61   34   64 1
    62   35   36 1
    63   35   65 1
    64   35   66 1
    65   36   41 1
    66   36   37 1
    67   37   38 1
    68   37   67 1
    69   37   68 1
    70   38   39 1
    71   38   69 1
    72   38   70 1
    73   39   40 1
    74   39   42 1
    75   39   81 1
    76   40   41 1
    77   40   71 1
    78   40   72 1
    79   41   73 1
    80   41   74 1
    81   42   75 1
    82   42   76 1
    83   42   77 1
    84   43   78 1
    85   43   79 1
    86   43   80 1
@<TRIPOS>MOLECULE
CHEMBL1076196__1
   81    86     0     0     0
SMALL
USER_CHARGES

@<TRIPOS>ATOM
      1 C1          2.9531    0.6092   -0.6237 C.3       1 <0>        -0.1170
      2 C2          2.0194   -0.3567    0.0591 C.ar      1 <0>        -0.0648
      3 C3          0.6579   -0.2820   -0.1725 C.ar      1 <0>        -0.1326
      4 C4         -0.2022   -1.1660    0.4523 C.ar      1 <0>        -0.0961
      5 C5          0.2962   -2.1273    1.3099 C.ar      1 <0>        -0.1259
      6 C6          1.6627   -2.2053    1.5443 C.ar      1 <0>         0.1470
      7 C7          2.5246   -1.3189    0.9109 C.ar      1 <0>        -0.1457
      8 N1          2.1705   -3.1771    2.4124 N.am      1 <0>        -0.6696
      9 C8          1.5794   -4.3857    2.4908 C.2       1 <0>         0.5570
     10 O1          0.6589   -4.6616    1.7463 O.2       1 <0>        -0.5023
     11 C9          2.0503   -5.3759    3.4823 C.ar      1 <0>        -0.1086
     12 C10         3.1036   -5.0593    4.3426 C.ar      1 <0>        -0.1064
     13 C11         3.5414   -5.9853    5.2672 C.ar      1 <0>        -0.0966
     14 C12         2.9405   -7.2279    5.3460 C.ar      1 <0>        -0.1042
     15 C13         1.8914   -7.5529    4.4943 C.ar      1 <0>         0.1644
     16 C14         1.4403   -6.6273    3.5655 C.ar      1 <0>        -0.0817
     17 N2          1.2876   -8.8114    4.5773 N.pl3     1 <0>        -0.6378
     18 C15         0.4932   -9.2649    3.5444 C.2       1 <0>         0.5332
     19 N3          0.3286   -8.6549    2.3978 N.2       1 <0>        -0.4939
     20 C16        -0.5162   -9.3746    1.6127 C.ar      1 <0>         0.0765
     21 C17        -1.0218   -9.1864    0.3241 C.ar      1 <0>        -0.0690
     22 C18        -1.8828  -10.1159   -0.2154 C.ar      1 <0>        -0.1098
     23 C19        -2.2524  -11.2378    0.5113 C.ar      1 <0>        -0.1015
     24 C20        -1.7620  -11.4379    1.7855 C.ar      1 <0>        -0.0916
     25 C21        -0.8936  -10.5129    2.3437 C.ar      1 <0>         0.0564
     26 N4         -0.2368  -10.4237    3.5628 N.pl3     1 <0>        -0.4599
     27 C22        -0.3089  -11.3398    4.6106 C.ar      1 <0>         0.4340
     28 C23        -0.5374  -10.9064    5.9113 C.ar      1 <0>        -0.3082
     29 C24        -0.6013  -11.8611    6.9231 C.ar      1 <0>         0.4598
     30 N5         -0.4424  -13.1454    6.6100 N.ar      1 <0>        -0.5673
     31 C25        -0.2274  -13.5154    5.3641 C.ar      1 <0>         0.3813
     32 N6         -0.1654  -12.6424    4.3792 N.ar      1 <0>        -0.5499
     33 N7         -0.8266  -11.4800    8.2365 N.pl3     1 <0>        -0.7092
     34 C26        -0.9996  -10.0637    8.5689 C.3       1 <0>         0.0999
     35 C27        -1.2322   -9.9178   10.0741 C.3       1 <0>        -0.0195
     36 N8         -1.4057   -8.4977   10.4074 N.4       1 <0>        -0.3831
     37 C28        -0.1567   -7.7748   10.1337 C.3       1 <0>        -0.0106
     38 C29        -0.3426   -6.2920   10.4630 C.3       1 <0>         0.0247
     39 N9         -0.7109   -6.1499   11.8787 N.3       1 <0>        -0.5425
     40 C30        -1.9466   -6.8892   12.1733 C.3       1 <0>         0.0234
     41 C31        -1.7473   -8.3671   11.8299 C.3       1 <0>        -0.0012
     42 C32        -0.8434   -4.7345   12.2487 C.3       1 <0>         0.0188
     43 C33         3.4251   -8.2335    6.3583 C.3       1 <0>        -0.1160
     44 H1          3.2727    0.1921   -1.5787 H         1 <0>         0.0735
     45 H2          2.4372    1.5541   -0.7944 H         1 <0>         0.0697
     46 H3          3.8248    0.7801    0.0081 H         1 <0>         0.0671
     47 H4          0.2657    0.4687   -0.8426 H         1 <0>         0.1248
     48 H5         -1.2649   -1.1046    0.2699 H         1 <0>         0.1267
     49 H6         -0.3762   -2.8173    1.7980 H         1 <0>         0.1318
     50 H7          3.5883   -1.3795    1.0879 H         1 <0>         0.1251
     51 H8          2.9482   -2.9812    2.9580 H         1 <0>         0.4091
     52 H9          3.5759   -4.0899    4.2841 H         1 <0>         0.1288
     53 H10         4.3564   -5.7386    5.9315 H         1 <0>         0.1363
     54 H11         0.6225   -6.8763    2.9055 H         1 <0>         0.1829
     55 H12         1.4273   -9.3656    5.3611 H         1 <0>         0.4152
     56 H13        -0.7387   -8.3146   -0.2470 H         1 <0>         0.1374
     57 H14        -2.2734   -9.9699   -1.2116 H         1 <0>         0.1368
     58 H15        -2.9287  -11.9594    0.0772 H         1 <0>         0.1358
     59 H16        -2.0541  -12.3132    2.3466 H         1 <0>         0.1235
     60 H17        -0.6618   -9.8564    6.1316 H         1 <0>         0.1435
     61 H18        -0.1022  -14.5651    5.1430 H         1 <0>         0.2158
     62 H19        -0.8698  -12.1510    8.9356 H         1 <0>         0.4204
     63 H20        -0.1037   -9.5117    8.2846 H         1 <0>         0.0871
     64 H21        -1.8584   -9.6659    8.0283 H         1 <0>         0.0892
     65 H22        -2.1281  -10.4698   10.3584 H         1 <0>         0.1437
     66 H23        -0.3734  -10.3157   10.6147 H         1 <0>         0.1436
     67 H24         0.6435   -8.1860   10.7491 H         1 <0>         0.1427
     68 H25         0.1027   -7.8833    9.0806 H         1 <0>         0.1346
     69 H26         0.5886   -5.7579   10.2741 H         1 <0>         0.1263
     70 H27        -1.1335   -5.8771    9.8380 H         1 <0>         0.0623
     71 H28        -2.1855   -6.7909   13.2323 H         1 <0>         0.1268
     72 H29        -2.7638   -6.4842   11.5766 H         1 <0>         0.0622
     73 H30        -2.6673   -8.9148   12.0344 H         1 <0>         0.1389
     74 H31        -0.9391   -8.7753   12.4367 H         1 <0>         0.1411
     75 H32        -1.6177   -4.2702   11.6379 H         1 <0>         0.0407
     76 H33        -1.1165   -4.6581   13.3012 H         1 <0>         0.0851
     77 H34         0.1055   -4.2249   12.0816 H         1 <0>         0.0855
     78 H35         2.8713   -8.1082    7.2887 H         1 <0>         0.0669
     79 H36         3.2666   -9.2412    5.9741 H         1 <0>         0.0594
     80 H37         4.4878   -8.0786    6.5444 H         1 <0>         0.0819
     81 H38        -2.1487   -8.1090    9.8462 H         1 <0>         0.4234
@<TRIPOS>BOND
     1    1    2 1
     2    1   44 1
     3    1   45 1
     4    1   46 1
     5    2    7 ar
     6    2    3 ar
     7    3    4 ar
     8    3   47 1
     9    4    5 ar
    10    4   48 1
    11    5    6 ar
    12    5   49 1
    13    6    7 ar
    14    6    8 1
    15    7   50 1
    16    8    9 am
    17    8   51 1
    18    9   10 2
    19    9   11 1
    20   11   16 ar
    21   11   12 ar
    22   12   13 ar
    23   12   52 1
    24   13   14 ar
    25   13   53 1
    26   14   15 ar
    27   14   43 1
    28   15   16 ar
    29   15   17 1
    30   16   54 1
    31   17   18 1
    32   17   55 1
    33   18   26 1
    34   18   19 2
    35   19   20 1
    36   20   25 ar
    37   20   21 ar
    38   21   22 ar
    39   21   56 1
    40   22   23 ar
    41   22   57 1
    42   23   24 ar
    43   23   58 1
    44   24   25 ar
    45   24   59 1
    46   25   26 1
    47   26   27 1
    48   27   32 ar
    49   27   28 ar
    50   28   29 ar
    51   28   60 1
    52   29   30 ar
    53   29   33 1
    54   30   31 ar
    55   31   32 ar
    56   31   61 1
    57   33   34 1
    58   33   62 1
    59   34   35 1
    60   34   63 1
    61   34   64 1
    62   35   36 1
    63   35   65 1
    64   35   66 1
    65   36   41 1
    66   36   37 1
    67   36   81 1
    68   37   38 1
    69   37   67 1
    70   37   68 1
    71   38   39 1
    72   38   69 1
    73   38   70 1
    74   39   40 1
    75   39   42 1
    76   40   41 1
    77   40   71 1
    78   40   72 1
    79   41   73 1
    80   41   74 1
    81   42   75 1
    82   42   76 1
    83   42   77 1
    84   43   78 1
    85   43   79 1
    86   43   80 1
@<TRIPOS>MOLECULE
CHEMBL220602
   61    65     0     0     0
SMALL
USER_CHARGES

@<TRIPOS>ATOM
      1 C1         -2.4343   -1.1030    1.4952 C.3       1 <0>        -0.1166
      2 C2         -1.1545   -1.2530    0.7137 C.ar      1 <0>        -0.0847
      3 C3         -1.1560   -1.9311   -0.4900 C.ar      1 <0>        -0.0925
      4 C4          0.0158   -2.0707   -1.2089 C.ar      1 <0>        -0.1287
      5 C5          1.1986   -1.5300   -0.7236 C.ar      1 <0>         0.1128
      6 C6          1.2043   -0.8487    0.4831 C.ar      1 <0>        -0.1377
      7 C7          0.0250   -0.7044    1.2013 C.ar      1 <0>         0.1412
      8 N1          0.0255   -0.0129    2.4161 N.pl3     1 <0>        -0.6535
      9 C8         -0.0583   -0.7110    3.6111 C.ar      1 <0>         0.4798
     10 C9         -0.0351   -2.1076    3.6193 C.ar      1 <0>        -0.2957
     11 C10        -0.1208   -2.7601    4.8335 C.ar      1 <0>         0.2282
     12 N2         -0.2217   -2.0476    5.9463 N.ar      1 <0>        -0.5716
     13 C11        -0.2413   -0.7249    5.9081 C.ar      1 <0>         0.5980
     14 N3         -0.1564   -0.0611    4.7664 N.ar      1 <0>        -0.5867
     15 N4         -0.3490   -0.0133    7.1002 N.pl3     1 <0>        -0.4309
     16 C12        -0.4345   -0.5432    8.3547 C.2       1 <0>         0.2893
     17 N5         -0.5234    0.4089    9.2358 N.2       1 <0>        -0.4720
     18 C13        -0.5014    1.6155    8.6117 C.ar      1 <0>         0.0461
     19 C14        -0.3833    1.3638    7.2344 C.ar      1 <0>         0.0583
     20 C15        -0.3296    2.4216    6.3390 C.ar      1 <0>        -0.0918
     21 C16        -0.3891    3.7184    6.8048 C.ar      1 <0>        -0.0999
     22 C17        -0.5019    3.9725    8.1639 C.ar      1 <0>        -0.1161
     23 C18        -0.5657    2.9348    9.0662 C.ar      1 <0>        -0.0644
     24 C19        -0.1002   -4.2658    4.8923 C.3       1 <0>        -0.0631
     25 C20         1.0184   -4.7243    5.8301 C.3       1 <0>        -0.0938
     26 C21         2.3755   -4.3327    5.2383 C.3       1 <0>        -0.1439
     27 C22         3.4915   -4.8636    6.1405 C.3       1 <0>        -0.0053
     28 N6          3.3989   -6.3257    6.2307 N.4       1 <0>        -0.3844
     29 C23         2.1303   -6.7064    6.8632 C.3       1 <0>        -0.0066
     30 C24         0.9618   -6.2464    5.9888 C.3       1 <0>        -0.1427
     31 C25         4.5176   -6.8371    7.0338 C.3       1 <0>        -0.0475
     32 O1          2.3504   -1.6690   -1.4314 O.3       1 <0>        -0.4975
     33 H1         -2.9444   -0.1909    1.1855 H         1 <0>         0.0781
     34 H2         -3.0784   -1.9617    1.3057 H         1 <0>         0.0738
     35 H3         -2.2058   -1.0481    2.5595 H         1 <0>         0.0607
     36 H4         -2.0748   -2.3531   -0.8697 H         1 <0>         0.1375
     37 H5          0.0114   -2.6017   -2.1493 H         1 <0>         0.1374
     38 H6          2.1237   -0.4277    0.8623 H         1 <0>         0.1340
     39 H7          0.0846    0.9552    2.4231 H         1 <0>         0.4213
     40 H8          0.0476   -2.6642    2.6975 H         1 <0>         0.1488
     41 H9         -0.4294   -1.5989    8.5824 H         1 <0>         0.2221
     42 H10        -0.2411    2.2303    5.2798 H         1 <0>         0.1377
     43 H11        -0.3472    4.5414    6.1068 H         1 <0>         0.1349
     44 H12        -0.5472    4.9924    8.5162 H         1 <0>         0.1362
     45 H13        -0.6519    3.1403   10.1230 H         1 <0>         0.1361
     46 H14        -1.0583   -4.6279    5.2652 H         1 <0>         0.1039
     47 H15         0.0758   -4.6660    3.8938 H         1 <0>         0.0934
     48 H16         0.8941   -4.2514    6.8042 H         1 <0>         0.1041
     49 H17         2.4764   -4.7641    4.2424 H         1 <0>         0.0904
     50 H18         2.4449   -3.2469    5.1740 H         1 <0>         0.1045
     51 H19         4.4591   -4.5864    5.7222 H         1 <0>         0.1298
     52 H20         3.3898   -4.4315    7.1360 H         1 <0>         0.1289
     53 H21         2.0929   -7.7896    6.9784 H         1 <0>         0.1322
     54 H22         2.0576   -6.2350    7.8433 H         1 <0>         0.1297
     55 H23         0.0207   -6.5284    6.4610 H         1 <0>         0.1162
     56 H24         1.0334   -6.7175    5.0084 H         1 <0>         0.0903
     57 H25         4.4728   -6.4073    8.0345 H         1 <0>         0.1218
     58 H26         4.4498   -7.9229    7.1015 H         1 <0>         0.1245
     59 H27         5.4602   -6.5607    6.5615 H         1 <0>         0.1232
     60 H28         2.5132   -0.9542   -2.0620 H         1 <0>         0.3979
     61 H29         3.4439   -6.7224    5.3040 H         1 <0>         0.4241
@<TRIPOS>BOND
     1    1    2 1
     2    1   33 1
     3    1   34 1
     4    1   35 1
     5    2    7 ar
     6    2    3 ar
     7    3    4 ar
     8    3   36 1
     9    4    5 ar
    10    4   37 1
    11    5    6 ar
    12    5   32 1
    13    6    7 ar
    14    6   38 1
    15    7    8 1
    16    8    9 1
    17    8   39 1
    18    9   14 ar
    19    9   10 ar
    20   10   11 ar
    21   10   40 1
    22   11   12 ar
    23   11   24 1
    24   12   13 ar
    25   13   14 ar
    26   13   15 1
    27   15   19 1
    28   15   16 1
    29   16   17 2
    30   16   41 1
    31   17   18 1
    32   18   23 ar
    33   18   19 ar
    34   19   20 ar
    35   20   21 ar
    36   20   42 1
    37   21   22 ar
    38   21   43 1
    39   22   23 ar
    40   22   44 1
    41   23   45 1
    42   24   25 1
    43   24   46 1
    44   24   47 1
    45   25   30 1
    46   25   26 1
    47   25   48 1
    48   26   27 1
    49   26   49 1
    50   26   50 1
    51   27   28 1
    52   27   51 1
    53   27   52 1
    54   28   29 1
    55   28   31 1
    56   28   61 1
    57   29   30 1
    58   29   53 1
    59   29   54 1
    60   30   55 1
    61   30   56 1
    62   31   57 1
    63   31   58 1
    64   31   59 1
    65   32   60 1
@<TRIPOS>MOLECULE
CHEMBL12253
   23    24     0     0     0
SMALL
USER_CHARGES

@<TRIPOS>ATOM
      1 C1         -0.0168    1.3891    0.0097 C.ar      1 <0>        -0.1687
      2 C2          1.1506    2.0964    0.0023 C.ar      1 <0>        -0.0251
      3 C3          2.3744    1.4182   -0.0129 C.ar      1 <0>        -0.1375
      4 C4          3.6425    2.1506   -0.0206 C.2       1 <0>         0.0948
      5 C5          4.7970    1.4348   -0.0350 C.2       1 <0>        -0.2820
      6 C6          4.7485    0.0256   -0.0421 C.2       1 <0>         0.5189
      7 O1          5.7911   -0.6039   -0.0550 O.2       1 <0>        -0.4844
      8 O2          3.5829   -0.6399   -0.0347 O.3       1 <0>        -0.2767
      9 C7          2.3999    0.0108   -0.0207 C.ar      1 <0>         0.1598
     10 C8          1.2048   -0.6918   -0.0135 C.ar      1 <0>        -0.1680
     11 C9          0.0021   -0.0041    0.0020 C.ar      1 <0>         0.1515
     12 O3         -1.1674   -0.6932    0.0095 O.3       1 <0>        -0.4946
     13 C10         3.6661    3.6574   -0.0132 C.3       1 <0>        -0.1730
     14 C11         3.5375    4.1687   -1.4249 C.2       1 <0>         0.5023
     15 O4          3.4361    3.3825   -2.3512 O.co2     1 <0>        -0.6814
     16 O5          3.5349    5.3687   -1.6408 O.co2     1 <0>        -0.6884
     17 H1         -0.9613    1.9127    0.0260 H         1 <0>         0.1382
     18 H2          1.1297    3.1762    0.0079 H         1 <0>         0.1441
     19 H3          5.7495    1.9438   -0.0413 H         1 <0>         0.1570
     20 H4          1.2112   -1.7718   -0.0196 H         1 <0>         0.1454
     21 H5         -1.5147   -0.8881   -0.8717 H         1 <0>         0.3956
     22 H6          2.8354    4.0308    0.5856 H         1 <0>         0.0845
     23 H7          4.6069    4.0039    0.4145 H         1 <0>         0.0875
@<TRIPOS>BOND
     1    1   11 ar
     2    1    2 ar
     3    1   17 1
     4    2    3 ar
     5    2   18 1
     6    3    9 ar
     7    3    4 1
     8    4    5 2
     9    4   13 1
    10    5    6 1
    11    5   19 1
    12    6    7 2
    13    6    8 1
    14    8    9 1
    15    9   10 ar
    16   10   11 ar
    17   10   20 1
    18   11   12 1
    19   12   21 1
    20   13   14 1
    21   13   22 1
    22   13   23 1
    23   14   15 2
    24   14   16 1
@<TRIPOS>MOLECULE
CHEMBL383899
   48    51     0     0     0
SMALL
USER_CHARGES

@<TRIPOS>ATOM
      1 C1          3.6884   -4.5470    0.7630 C.ar      1 <0>        -0.1011
      2 C2          4.7553   -3.8912    0.1758 C.ar      1 <0>        -0.0894
      3 C3          4.5952   -2.6108   -0.3208 C.ar      1 <0>        -0.1622
      4 C4          3.3684   -1.9823   -0.2319 C.ar      1 <0>        -0.1014
      5 C5          2.2951   -2.6379    0.3571 C.ar      1 <0>         0.1580
      6 C6          2.4594   -3.9244    0.8551 C.ar      1 <0>        -0.0836
      7 N1          1.0523   -2.0045    0.4492 N.pl3     1 <0>        -0.6496
      8 C7         -0.1136   -2.7447    0.3274 C.ar      1 <0>         0.4659
      9 C8         -1.3605   -2.1179    0.3881 C.ar      1 <0>        -0.3243
     10 C9         -2.4952   -2.8950    0.2615 C.ar      1 <0>         0.2163
     11 N2         -2.3694   -4.2025    0.0875 N.ar      1 <0>        -0.5803
     12 C10        -1.1738   -4.7705    0.0338 C.ar      1 <0>         0.5960
     13 N3         -0.0613   -4.0602    0.1458 N.ar      1 <0>        -0.6075
     14 N4         -1.0847   -6.1407   -0.1494 N.pl3     1 <0>        -0.6357
     15 C11        -2.2410   -6.8917   -0.3809 C.ar      1 <0>         0.1846
     16 C12        -3.2942   -6.3427   -1.1026 C.ar      1 <0>        -0.1235
     17 C13        -4.4369   -7.0841   -1.3317 C.ar      1 <0>        -0.0802
     18 C14        -4.5371   -8.3732   -0.8441 C.ar      1 <0>        -0.1359
     19 C15        -3.4882   -8.9276   -0.1216 C.ar      1 <0>         0.1654
     20 C16        -2.3362   -8.1880    0.1047 C.ar      1 <0>        -0.1759
     21 N5         -3.5910  -10.2326    0.3726 N.am      1 <0>        -0.6704
     22 C17        -4.2799  -11.1625   -0.3182 C.2       1 <0>         0.5439
     23 O1         -4.7267  -10.8964   -1.4139 O.2       1 <0>        -0.5155
     24 C18        -4.4949  -12.5329    0.2707 C.3       1 <0>        -0.1994
     25 C19        -3.7732  -13.7079   -0.3922 C.3       1 <0>        -0.1512
     26 C20        -5.2848  -13.5440   -0.5626 C.3       1 <0>        -0.1443
     27 C21         5.7605   -1.9000   -0.9594 C.3       1 <0>         0.5094
     28 F1          6.8854   -2.7313   -0.9323 F         1 <0>        -0.1753
     29 F2          5.4450   -1.5853   -2.2855 F         1 <0>        -0.1758
     30 F3          6.0330   -0.7235   -0.2531 F         1 <0>        -0.1762
     31 H1          3.8157   -5.5487    1.1459 H         1 <0>         0.1381
     32 H2          5.7156   -4.3803    0.1054 H         1 <0>         0.1395
     33 H3          3.2441   -0.9820   -0.6197 H         1 <0>         0.1355
     34 H4          1.6266   -4.4371    1.3134 H         1 <0>         0.1478
     35 H5          1.0057   -1.0472    0.5982 H         1 <0>         0.4256
     36 H6         -1.4355   -1.0501    0.5311 H         1 <0>         0.1455
     37 H7         -3.4746   -2.4418    0.3042 H         1 <0>         0.1731
     38 H8         -0.2200   -6.5791   -0.1170 H         1 <0>         0.4224
     39 H9         -3.2192   -5.3352   -1.4845 H         1 <0>         0.1365
     40 H10        -5.2540   -6.6552   -1.8928 H         1 <0>         0.1295
     41 H11        -5.4321   -8.9501   -1.0246 H         1 <0>         0.1340
     42 H12        -1.5173   -8.6186    0.6618 H         1 <0>         0.1271
     43 H13        -3.1665  -10.4681    1.2124 H         1 <0>         0.4121
     44 H14        -4.6207  -12.5650    1.3530 H         1 <0>         0.1280
     45 H15        -3.1429  -13.4897   -1.2543 H         1 <0>         0.1008
     46 H16        -3.4240  -14.5133    0.2539 H         1 <0>         0.1075
     47 H17        -5.9301  -14.2416   -0.0287 H         1 <0>         0.1064
     48 H18        -5.6490  -13.2180   -1.5369 H         1 <0>         0.1097
@<TRIPOS>BOND
     1    1    6 ar
     2    1    2 ar
     3    1   31 1
     4    2    3 ar
     5    2   32 1
     6    3    4 ar
     7    3   27 1
     8    4    5 ar
     9    4   33 1
    10    5    6 ar
    11    5    7 1
    12    6   34 1
    13    7    8 1
    14    7   35 1
    15    8   13 ar
    16    8    9 ar
    17    9   10 ar
    18    9   36 1
    19   10   11 ar
    20   10   37 1
    21   11   12 ar
    22   12   13 ar
    23   12   14 1
    24   14   15 1
    25   14   38 1
    26   15   20 ar
    27   15   16 ar
    28   16   17 ar
    29   16   39 1
    30   17   18 ar
    31   17   40 1
    32   18   19 ar
    33   18   41 1
    34   19   20 ar
    35   19   21 1
    36   20   42 1
    37   21   22 am
    38   21   43 1
    39   22   23 2
    40   22   24 1
    41   24   26 1
    42   24   25 1
    43   24   44 1
    44   25   26 1
    45   25   45 1
    46   25   46 1
    47   26   47 1
    48   26   48 1
    49   27   28 1
    50   27   29 1
    51   27   30 1
@<TRIPOS>MOLECULE
CHEMBL247480
   69    74     0     0     0
SMALL
USER_CHARGES

@<TRIPOS>ATOM
      1 C1         -0.1166    1.1845    0.1380 C.ar      1 <0>        -0.1073
      2 C2          1.0276    1.9376   -0.0570 C.ar      1 <0>        -0.1121
      3 C3          2.2617    1.3227   -0.1057 C.ar      1 <0>        -0.0944
      4 C4          2.3543   -0.0617    0.0422 C.ar      1 <0>        -0.0315
      5 C5          1.1967   -0.8155    0.2386 C.ar      1 <0>        -0.1123
      6 C6         -0.0314   -0.1886    0.2853 C.ar      1 <0>        -0.1128
      7 C7          3.6750   -0.7279   -0.0095 C.2       1 <0>        -0.0686
      8 C8          4.1675   -1.6419   -1.0482 C.ar      1 <0>        -0.2851
      9 C9          3.6470   -2.1702   -2.2371 C.ar      1 <0>         0.4995
     10 N1          4.4095   -2.9986   -2.9463 N.ar      1 <0>        -0.5862
     11 C10         5.6254   -3.3149   -2.5406 C.ar      1 <0>         0.3817
     12 N2          6.1512   -2.8413   -1.4308 N.ar      1 <0>        -0.5498
     13 C11         5.4657   -2.0054   -0.6545 C.ar      1 <0>         0.3357
     14 O1          5.7338   -1.3772    0.5032 O.3       1 <0>        -0.1671
     15 C12         4.6936   -0.6156    0.8977 C.2       1 <0>         0.0596
     16 C13         4.6576    0.2088    2.1200 C.ar      1 <0>        -0.0377
     17 C14         3.5515    0.1508    2.9723 C.ar      1 <0>        -0.0403
     18 C15         3.5226    0.9225    4.1136 C.ar      1 <0>        -0.1377
     19 C16         4.5904    1.7572    4.4175 C.ar      1 <0>         0.1271
     20 C17         5.6918    1.8182    3.5735 C.ar      1 <0>        -0.2013
     21 C18         5.7321    1.0462    2.4327 C.ar      1 <0>        -0.0491
     22 O2          4.5573    2.5166    5.5436 O.3       1 <0>        -0.3258
     23 C19         5.6885    3.3526    5.7958 C.3       1 <0>         0.0253
     24 C20         5.4709    4.1259    7.0979 C.3       1 <0>         0.0039
     25 N3          5.4245    3.1844    8.2247 N.4       1 <0>        -0.3961
     26 C21         6.7642    2.5816    8.4440 C.3       1 <0>        -0.0108
     27 C22         6.7013    2.1041    9.9166 C.3       1 <0>        -0.1447
     28 C23         5.8869    3.2217   10.6079 C.3       1 <0>        -0.1451
     29 C24         5.0954    3.9018    9.4755 C.3       1 <0>        -0.0085
     30 N4          2.3729   -1.8395   -2.6624 N.pl3     1 <0>        -0.6882
     31 C25         1.8473   -2.4028   -3.9085 C.3       1 <0>         0.1139
     32 C26         0.4290   -1.8804   -4.1460 C.3       1 <0>         0.0659
     33 H1         -0.1913   -2.0852   -3.2734 H         1 <0>         0.0858
     34 C27        -0.1781   -2.5612   -5.3915 C.3       1 <0>        -0.1469
     35 C28        -0.9508   -1.3927   -6.0620 C.3       1 <0>        -0.1560
     36 C29        -0.0299   -0.1952   -5.7176 C.3       1 <0>         0.0486
     37 O3          0.4659   -0.4705   -4.3958 O.3       1 <0>        -0.3759
     38 H2         -1.0799    1.6711    0.1799 H         1 <0>         0.1261
     39 H3          0.9545    3.0090   -0.1717 H         1 <0>         0.1263
     40 H4          3.1541    1.9115   -0.2583 H         1 <0>         0.1214
     41 H5          1.2618   -1.8874    0.3534 H         1 <0>         0.1234
     42 H6         -0.9282   -0.7708    0.4376 H         1 <0>         0.1279
     43 H7          6.2130   -3.9906   -3.1443 H         1 <0>         0.2136
     44 H8          2.7206   -0.4976    2.7367 H         1 <0>         0.1407
     45 H9          2.6681    0.8786    4.7727 H         1 <0>         0.1403
     46 H10         6.5197    2.4689    3.8136 H         1 <0>         0.1339
     47 H11         6.5909    1.0909    1.7793 H         1 <0>         0.1376
     48 H12         6.5832    2.7363    5.8844 H         1 <0>         0.0872
     49 H13         5.8116    4.0556    4.9720 H         1 <0>         0.1101
     50 H14         6.2914    4.8282    7.2449 H         1 <0>         0.1492
     51 H15         4.5298    4.6730    7.0427 H         1 <0>         0.1418
     52 H16         6.9209    1.7377    7.7722 H         1 <0>         0.1337
     53 H17         7.5477    3.3282    8.3147 H         1 <0>         0.1351
     54 H18         6.1836    1.1478    9.9902 H         1 <0>         0.0985
     55 H19         7.7021    2.0360   10.3430 H         1 <0>         0.1175
     56 H20         5.2045    2.7935   11.3422 H         1 <0>         0.1057
     57 H21         6.5562    3.9378   11.0847 H         1 <0>         0.1045
     58 H22         5.3907    4.9477    9.3923 H         1 <0>         0.1315
     59 H23         4.0262    3.8297    9.6746 H         1 <0>         0.1330
     60 H24         1.8275   -1.2346   -2.1356 H         1 <0>         0.4166
     61 H25         2.4875   -2.1067   -4.7395 H         1 <0>         0.0785
     62 H26         1.8265   -3.4901   -3.8353 H         1 <0>         0.0843
     63 H27         0.6058   -2.9361   -6.0495 H         1 <0>         0.0847
     64 H28        -0.8594   -3.3616   -5.1027 H         1 <0>         0.0885
     65 H29        -1.0218   -1.5363   -7.1402 H         1 <0>         0.0881
     66 H30        -1.9386   -1.2690   -5.6181 H         1 <0>         0.0806
     67 H31         0.7953   -0.1361   -6.4273 H         1 <0>         0.0629
     68 H32        -0.6001    0.7338   -5.7210 H         1 <0>         0.0878
     69 H33         4.7419    2.4627    8.0476 H         1 <0>         0.4336
@<TRIPOS>BOND
     1    1    6 ar
     2    1    2 ar
     3    1   38 1
     4    2    3 ar
     5    2   39 1
     6    3    4 ar
     7    3   40 1
     8    4    5 ar
     9    4    7 1
    10    5    6 ar
    11    5   41 1
    12    6   42 1
    13    7   15 2
    14    7    8 1
    15    8   13 ar
    16    8    9 ar
    17    9   10 ar
    18    9   30 1
    19   10   11 ar
    20   11   12 ar
    21   11   43 1
    22   12   13 ar
    23   13   14 1
    24   14   15 1
    25   15   16 1
    26   16   21 ar
    27   16   17 ar
    28   17   18 ar
    29   17   44 1
    30   18   19 ar
    31   18   45 1
    32   19   20 ar
    33   19   22 1
    34   20   21 ar
    35   20   46 1
    36   21   47 1
    37   22   23 1
    38   23   24 1
    39   23   48 1
    40   23   49 1
    41   24   25 1
    42   24   50 1
    43   24   51 1
    44   25   29 1
    45   25   26 1
    46   25   69 1
    47   26   27 1
    48   26   52 1
    49   26   53 1
    50   27   28 1
    51   27   54 1
    52   27   55 1
    53   28   29 1
    54   28   56 1
    55   28   57 1
    56   29   58 1
    57   29   59 1
    58   30   31 1
    59   30   60 1
    60   31   32 1
    61   31   61 1
    62   31   62 1
    63   32   33 1
    64   32   37 1
    65   32   34 1
    66   34   35 1
    67   34   63 1
    68   34   64 1
    69   35   36 1
    70   35   65 1
    71   35   66 1
    72   36   37 1
    73   36   67 1
    74   36   68 1
@<TRIPOS>MOLECULE
CHEMBL247479
   65    69     0     0     0
SMALL
USER_CHARGES

@<TRIPOS>ATOM
      1 C1          0.8432   -3.4544    1.2948 C.3       1 <0>        -0.0547
      2 N1          0.5645   -2.6555    0.0939 N.4       1 <0>        -0.3890
      3 C2         -0.7579   -3.0134   -0.4362 C.3       1 <0>        -0.0476
      4 C3          0.5834   -1.2280    0.4401 C.3       1 <0>        -0.0017
      5 C4          1.9946   -0.8272    0.8744 C.3       1 <0>         0.0227
      6 O1          2.8892   -0.9597   -0.2321 O.3       1 <0>        -0.3259
      7 C5          4.1917   -0.6408   -0.0139 C.ar      1 <0>         0.1269
      8 C6          4.5987   -0.2145    1.2437 C.ar      1 <0>        -0.1998
      9 C7          5.9189    0.1096    1.4699 C.ar      1 <0>        -0.0397
     10 C8          6.8487    0.0088    0.4314 C.ar      1 <0>        -0.0386
     11 C9          6.4344   -0.4206   -0.8324 C.ar      1 <0>        -0.0488
     12 C10         5.1131   -0.7476   -1.0477 C.ar      1 <0>        -0.1389
     13 C11         8.2626    0.3550    0.6683 C.2       1 <0>         0.0627
     14 C12         9.0126   -0.0705    1.7311 C.2       1 <0>        -0.0727
     15 C13        10.3427    0.5223    1.5411 C.ar      1 <0>        -0.2849
     16 C14        11.5547    0.4937    2.2439 C.ar      1 <0>         0.4991
     17 N2         12.5852    1.1767    1.7523 N.ar      1 <0>        -0.5861
     18 C15        12.4694    1.8641    0.6310 C.ar      1 <0>         0.3820
     19 N3         11.3498    1.9174   -0.0588 N.ar      1 <0>        -0.5485
     20 C16        10.2643    1.2665    0.3526 C.ar      1 <0>         0.3363
     21 O2          9.0173    1.1347   -0.1318 O.3       1 <0>        -0.1659
     22 N4         11.6764   -0.2260    3.4190 N.pl3     1 <0>        -0.6889
     23 C17        12.9523   -0.2430    4.1387 C.3       1 <0>         0.1139
     24 C18        12.8177   -1.1058    5.3951 C.3       1 <0>         0.0662
     25 H1         11.9776   -0.7563    5.9952 H         1 <0>         0.0854
     26 C19        14.1189   -1.0324    6.2226 C.3       1 <0>        -0.1471
     27 C20        14.2763   -2.4953    6.7197 C.3       1 <0>        -0.1560
     28 C21        13.7021   -3.2794    5.5130 C.3       1 <0>         0.0486
     29 O3         12.6145   -2.4745    5.0251 O.3       1 <0>        -0.3763
     30 C22         8.5740   -0.9455    2.8414 C.ar      1 <0>        -0.0278
     31 C23         8.4705   -0.4357    4.1362 C.ar      1 <0>        -0.1122
     32 C24         8.0607   -1.2564    5.1667 C.ar      1 <0>        -0.1130
     33 C25         7.7527   -2.5822    4.9185 C.ar      1 <0>        -0.1094
     34 C26         7.8533   -3.0937    3.6370 C.ar      1 <0>        -0.1136
     35 C27         8.2568   -2.2821    2.5968 C.ar      1 <0>        -0.0948
     36 H2          1.8245   -3.1889    1.6881 H         1 <0>         0.1215
     37 H3          0.0828   -3.2535    2.0494 H         1 <0>         0.1248
     38 H4          0.8292   -4.5136    1.0379 H         1 <0>         0.1275
     39 H5         -1.5184   -2.8125    0.3184 H         1 <0>         0.1232
     40 H6         -0.9647   -2.4206   -1.3273 H         1 <0>         0.1250
     41 H7         -0.7719   -4.0726   -0.6931 H         1 <0>         0.1260
     42 H8          0.2897   -0.6395   -0.4290 H         1 <0>         0.1433
     43 H9         -0.1144   -1.0430    1.2568 H         1 <0>         0.1500
     44 H10         1.9895    0.2080    1.2155 H         1 <0>         0.1107
     45 H11         2.3229   -1.4758    1.6866 H         1 <0>         0.0886
     46 H12         3.8794   -0.1365    2.0456 H         1 <0>         0.1341
     47 H13         6.2344    0.4414    2.4481 H         1 <0>         0.1361
     48 H14         7.1494   -0.5000   -1.6379 H         1 <0>         0.1429
     49 H15         4.7928   -1.0834   -2.0229 H         1 <0>         0.1406
     50 H16        13.3292    2.4054    0.2646 H         1 <0>         0.2140
     51 H17        10.9169   -0.7193    3.7665 H         1 <0>         0.4159
     52 H18        13.7274   -0.6579    3.4943 H         1 <0>         0.0786
     53 H19        13.2225    0.7739    4.4235 H         1 <0>         0.0843
     54 H20        14.9619   -0.7431    5.5951 H         1 <0>         0.0850
     55 H21        14.0062   -0.3472    7.0628 H         1 <0>         0.0885
     56 H22        15.3246   -2.7430    6.8863 H         1 <0>         0.0882
     57 H23        13.6856   -2.6703    7.6189 H         1 <0>         0.0804
     58 H24        14.4629   -3.3964    4.7412 H         1 <0>         0.0631
     59 H25        13.3356   -4.2541    5.8349 H         1 <0>         0.0876
     60 H26         8.7111    0.5989    4.3312 H         1 <0>         0.1237
     61 H27         7.9806   -0.8631    6.1694 H         1 <0>         0.1276
     62 H28         7.4327   -3.2206    5.7287 H         1 <0>         0.1252
     63 H29         7.6118   -4.1296    3.4497 H         1 <0>         0.1254
     64 H30         8.3307   -2.6814    1.5961 H         1 <0>         0.1221
     65 H31         1.2685   -2.8415   -0.6046 H         1 <0>         0.4341
@<TRIPOS>BOND
     1    1    2 1
     2    1   36 1
     3    1   37 1
     4    1   38 1
     5    2    3 1
     6    2    4 1
     7    2   65 1
     8    3   39 1
     9    3   40 1
    10    3   41 1
    11    4    5 1
    12    4   42 1
    13    4   43 1
    14    5    6 1
    15    5   44 1
    16    5   45 1
    17    6    7 1
    18    7   12 ar
    19    7    8 ar
    20    8    9 ar
    21    8   46 1
    22    9   10 ar
    23    9   47 1
    24   10   11 ar
    25   10   13 1
    26   11   12 ar
    27   11   48 1
    28   12   49 1
    29   13   21 1
    30   13   14 2
    31   14   15 1
    32   14   30 1
    33   15   20 ar
    34   15   16 ar
    35   16   17 ar
    36   16   22 1
    37   17   18 ar
    38   18   19 ar
    39   18   50 1
    40   19   20 ar
    41   20   21 1
    42   22   23 1
    43   22   51 1
    44   23   24 1
    45   23   52 1
    46   23   53 1
    47   24   25 1
    48   24   29 1
    49   24   26 1
    50   26   27 1
    51   26   54 1
    52   26   55 1
    53   27   28 1
    54   27   56 1
    55   27   57 1
    56   28   29 1
    57   28   58 1
    58   28   59 1
    59   30   35 ar
    60   30   31 ar
    61   31   32 ar
    62   31   60 1
    63   32   33 ar
    64   32   61 1
    65   33   34 ar
    66   33   62 1
    67   34   35 ar
    68   34   63 1
    69   35   64 1
@<TRIPOS>MOLECULE
CHEMBL256101
   60    64     0     0     0
SMALL
USER_CHARGES

@<TRIPOS>ATOM
      1 C1         -0.0791    1.3145   -0.0505 C.3       1 <0>        -0.1071
      2 C2         -0.9726    0.1127    0.1186 C.ar      1 <0>        -0.0751
      3 C3         -1.6447   -0.3913   -0.9499 C.ar      1 <0>        -0.0386
      4 C4         -2.4822   -1.5101   -0.8120 C.ar      1 <0>        -0.0501
      5 C5         -2.6408   -2.1237    0.4173 C.ar      1 <0>        -0.0192
      6 C6         -1.9561   -1.6197    1.5321 C.ar      1 <0>        -0.0296
      7 C7         -1.1074   -0.4912    1.3789 C.ar      1 <0>         0.1968
      8 N1         -0.4578   -0.0266    2.4533 N.ar      1 <0>        -0.5066
      9 C8         -0.6222   -0.6340    3.6148 C.ar      1 <0>         0.4973
     10 N2         -1.4192   -1.6978    3.7397 N.ar      1 <0>        -0.2823
     11 N3         -2.0780   -2.1790    2.7417 N.ar      1 <0>        -0.1003
     12 N4          0.0477   -0.1567    4.7281 N.pl3     1 <0>        -0.6249
     13 C9         -0.0222   -0.8547    5.9398 C.ar      1 <0>         0.1184
     14 C10         0.0084   -2.2431    5.9445 C.ar      1 <0>        -0.0702
     15 C11        -0.0606   -2.9308    7.1400 C.ar      1 <0>        -0.1272
     16 C12        -0.1609   -2.2352    8.3360 C.ar      1 <0>         0.1203
     17 C13        -0.1915   -0.8484    8.3321 C.ar      1 <0>        -0.1828
     18 C14        -0.1164   -0.1590    7.1379 C.ar      1 <0>        -0.0965
     19 O1         -0.2297   -2.9131    9.5128 O.3       1 <0>        -0.3168
     20 C15        -0.3316   -2.1332   10.7058 C.3       1 <0>         0.0478
     21 C16        -0.3975   -3.0632   11.9190 C.3       1 <0>         0.0235
     22 N5          0.8686   -3.7980   12.0420 N.4       1 <0>        -0.1196
     23 O2          1.9574   -2.8615   12.3211 O.3       1 <0>        -0.6485
     24 C17         1.1485   -4.5211   10.7832 C.3       1 <0>         0.0202
     25 C18         1.8116   -5.8483   11.2285 C.3       1 <0>        -0.1373
     26 C19         1.0212   -6.1747   12.5229 C.3       1 <0>        -0.1401
     27 C20         0.7673   -4.7814   13.1359 C.3       1 <0>         0.0066
     28 C21        -3.2036   -2.0382   -1.9953 C.ar      1 <0>        -0.0366
     29 C22        -4.1756   -1.2623   -2.6266 C.ar      1 <0>        -0.0126
     30 C23        -4.8441   -1.7598   -3.7283 C.ar      1 <0>        -0.1039
     31 C24        -4.5512   -3.0246   -4.2055 C.ar      1 <0>        -0.0870
     32 C25        -3.5884   -3.7989   -3.5839 C.ar      1 <0>        -0.1035
     33 C26        -2.9089   -3.3104   -2.4848 C.ar      1 <0>        -0.0127
     34 Cl1        -1.6953   -4.2808   -1.7106 Cl        1 <0>        -0.0453
     35 Cl2        -4.5449    0.3251   -2.0287 Cl        1 <0>        -0.0456
     36 H1          0.9288    0.9852   -0.3032 H         1 <0>         0.0761
     37 H2         -0.4664    1.9455   -0.8505 H         1 <0>         0.0718
     38 H3         -0.0535    1.8819    0.8797 H         1 <0>         0.0793
     39 H4         -1.5334    0.0750   -1.9177 H         1 <0>         0.1418
     40 H5         -3.2868   -2.9834    0.5177 H         1 <0>         0.1475
     41 H6          0.5655    0.6614    4.6688 H         1 <0>         0.4261
     42 H7          0.0858   -2.7848    5.0134 H         1 <0>         0.1333
     43 H8         -0.0368   -4.0105    7.1439 H         1 <0>         0.1356
     44 H9         -0.2700   -0.3075    9.2637 H         1 <0>         0.1339
     45 H10        -0.1354    0.9208    7.1354 H         1 <0>         0.1303
     46 H11         0.5405   -1.4850   10.7918 H         1 <0>         0.0939
     47 H12        -1.2346   -1.5240   10.6656 H         1 <0>         0.0822
     48 H13        -0.5643   -2.4733   12.8203 H         1 <0>         0.1214
     49 H14        -1.2170   -3.7703   11.7907 H         1 <0>         0.0985
     50 H15         0.2213   -4.7216   10.2465 H         1 <0>         0.1085
     51 H16         1.8325   -3.9459   10.1592 H         1 <0>         0.1108
     52 H17         1.6705   -6.6263   10.4782 H         1 <0>         0.0924
     53 H18         2.8703   -5.7030   11.4437 H         1 <0>         0.0860
     54 H19         0.0791   -6.6686   12.2850 H         1 <0>         0.0820
     55 H20         1.6201   -6.7884   13.1958 H         1 <0>         0.0925
     56 H21         1.5183   -4.5685   13.8966 H         1 <0>         0.1143
     57 H22        -0.2295   -4.7457   13.5754 H         1 <0>         0.0948
     58 H23        -5.5972   -1.1602   -4.2178 H         1 <0>         0.1449
     59 H24        -5.0769   -3.4092   -5.0670 H         1 <0>         0.1462
     60 H25        -3.3645   -4.7858   -3.9610 H         1 <0>         0.1450
@<TRIPOS>BOND
     1    1    2 1
     2    1   36 1
     3    1   37 1
     4    1   38 1
     5    2    7 ar
     6    2    3 ar
     7    3    4 ar
     8    3   39 1
     9    4    5 ar
    10    4   28 1
    11    5    6 ar
    12    5   40 1
    13    6   11 ar
    14    6    7 ar
    15    7    8 ar
    16    8    9 ar
    17    9   10 ar
    18    9   12 1
    19   10   11 ar
    20   12   13 1
    21   12   41 1
    22   13   18 ar
    23   13   14 ar
    24   14   15 ar
    25   14   42 1
    26   15   16 ar
    27   15   43 1
    28   16   17 ar
    29   16   19 1
    30   17   18 ar
    31   17   44 1
    32   18   45 1
    33   19   20 1
    34   20   21 1
    35   20   46 1
    36   20   47 1
    37   21   22 1
    38   21   48 1
    39   21   49 1
    40   22   27 1
    41   22   23 1
    42   22   24 1
    43   24   25 1
    44   24   50 1
    45   24   51 1
    46   25   26 1
    47   25   52 1
    48   25   53 1
    49   26   27 1
    50   26   54 1
    51   26   55 1
    52   27   56 1
    53   27   57 1
    54   28   33 ar
    55   28   29 ar
    56   29   30 ar
    57   29   35 1
    58   30   31 ar
    59   30   58 1
    60   31   32 ar
    61   31   59 1
    62   32   33 ar
    63   32   60 1
    64   33   34 1
@<TRIPOS>MOLECULE
CHEMBL572199
   78    84     0     0     0
SMALL
USER_CHARGES

@<TRIPOS>ATOM
      1 C1          0.6890    1.7358   -0.3408 C.3       1 <0>        -0.1749
      2 C2          0.4775    0.2460   -0.0640 C.3       1 <0>         0.1301
      3 C3         -1.0216   -0.0557   -0.0147 C.3       1 <0>         0.0603
      4 C4         -1.2368   -1.5072    0.4272 C.3       1 <0>         0.1403
      5 N1         -0.7082   -2.3970   -0.6178 N.am      1 <0>        -0.6218
      6 C5         -1.1424   -2.1754   -2.0055 C.3       1 <0>         0.1148
      7 C6         -0.9310   -0.6976   -2.3516 C.3       1 <0>         0.0292
      8 N2         -1.6048    0.1381   -1.3490 N.3       1 <0>        -0.5093
      9 C7         -1.5727    1.5546   -1.7368 C.3       1 <0>         0.0800
     10 C8         -2.6566    1.8231   -2.7487 C.ar      1 <0>        -0.0781
     11 C9         -2.3929    1.6810   -4.0982 C.ar      1 <0>        -0.1151
     12 C10        -3.3872    1.9272   -5.0265 C.ar      1 <0>        -0.1197
     13 C11        -4.6453    2.3152   -4.6052 C.ar      1 <0>        -0.1191
     14 C12        -4.9093    2.4564   -3.2557 C.ar      1 <0>        -0.1196
     15 C13        -3.9163    2.2060   -2.3272 C.ar      1 <0>        -0.0987
     16 C14         0.1509   -3.3893   -0.3119 C.2       1 <0>         0.7100
     17 O1          0.4156   -3.6274    0.8506 O.2       1 <0>        -0.5594
     18 N3          0.7165   -4.1178   -1.2947 N.am      1 <0>        -0.6770
     19 C15         1.5673   -5.1782   -0.9764 C.ar      1 <0>         0.1723
     20 C16         1.4745   -5.8001    0.2500 C.ar      1 <0>        -0.1372
     21 C17         2.3179   -6.8575    0.5773 C.ar      1 <0>        -0.0889
     22 C18         3.2560   -7.3065   -0.3016 C.ar      1 <0>        -0.1314
     23 C19         3.3829   -6.7000   -1.5627 C.ar      1 <0>        -0.0321
     24 C20         2.5260   -5.6264   -1.9096 C.ar      1 <0>        -0.0673
     25 C21         2.6505   -5.0252   -3.1719 C.ar      1 <0>        -0.1090
     26 C22         3.5869   -5.4837   -4.0475 C.ar      1 <0>        -0.1145
     27 C23         4.4259   -6.5439   -3.7098 C.ar      1 <0>        -0.1153
     28 C24         4.3422   -7.1424   -2.4902 C.ar      1 <0>        -0.1030
     29 N4          1.0885   -0.1035    1.2208 N.pl3     1 <0>        -0.6824
     30 C25         2.4347   -0.4187    1.2839 C.ar      1 <0>         0.6086
     31 N5          3.1568   -0.3938    0.1732 N.ar      1 <0>        -0.5749
     32 C26         4.4475   -0.6889    0.1945 C.ar      1 <0>         0.2207
     33 C27         5.0441   -1.0267    1.3952 C.ar      1 <0>        -0.3078
     34 C28         4.2581   -1.0440    2.5469 C.ar      1 <0>         0.4520
     35 N6          2.9703   -0.7322    2.4538 N.ar      1 <0>        -0.5858
     36 N7          4.8168   -1.3790    3.7787 N.pl3     1 <0>        -0.4391
     37 C29         6.1199   -1.7074    4.0142 C.2       1 <0>         0.2744
     38 N8          6.2943   -1.9624    5.2774 N.2       1 <0>        -0.4714
     39 C30         5.1182   -1.8163    5.9416 C.ar      1 <0>         0.0426
     40 C31         4.1548   -1.4350    4.9926 C.ar      1 <0>         0.0587
     41 C32         2.8453   -1.2063    5.3884 C.ar      1 <0>        -0.0872
     42 C33         2.4940   -1.3513    6.7141 C.ar      1 <0>        -0.1038
     43 C34         3.4420   -1.7242    7.6557 C.ar      1 <0>        -0.1201
     44 C35         4.7446   -1.9630    7.2796 C.ar      1 <0>        -0.0671
     45 H1          1.6681    2.0389    0.0301 H         1 <0>         0.0622
     46 H2          0.6351    1.9172   -1.4143 H         1 <0>         0.0738
     47 H3         -0.0855    2.3128    0.1645 H         1 <0>         0.0609
     48 H4          0.9402   -0.3403   -0.8579 H         1 <0>         0.0990
     49 H5         -1.5048    0.6163    0.6946 H         1 <0>         0.1049
     50 H6         -0.7081   -1.6871    1.3632 H         1 <0>         0.1002
     51 H7         -2.3020   -1.6944    0.5632 H         1 <0>         0.0807
     52 H8         -0.5513   -2.7971   -2.6778 H         1 <0>         0.0764
     53 H9         -2.1985   -2.4268   -2.1033 H         1 <0>         0.0857
     54 H10         0.1358   -0.4737   -2.3542 H         1 <0>         0.0504
     55 H11        -1.3487   -0.4915   -3.3371 H         1 <0>         0.0958
     56 H12        -1.7356    2.1762   -0.8563 H         1 <0>         0.0875
     57 H13        -0.6019    1.7900   -2.1731 H         1 <0>         0.0650
     58 H14        -1.4100    1.3779   -4.4274 H         1 <0>         0.1169
     59 H15        -3.1809    1.8169   -6.0808 H         1 <0>         0.1207
     60 H16        -5.4220    2.5083   -5.3305 H         1 <0>         0.1205
     61 H17        -5.8922    2.7599   -2.9266 H         1 <0>         0.1212
     62 H18        -4.1235    2.3128   -1.2727 H         1 <0>         0.1206
     63 H19         0.5325   -3.9055   -2.2231 H         1 <0>         0.4035
     64 H20         0.7390   -5.4628    0.9652 H         1 <0>         0.1528
     65 H21         2.2272   -7.3295    1.5445 H         1 <0>         0.1251
     66 H22         3.9022   -8.1280   -0.0295 H         1 <0>         0.1271
     67 H23         2.0065   -4.2031   -3.4474 H         1 <0>         0.1156
     68 H24         3.6805   -5.0193   -5.0180 H         1 <0>         0.1233
     69 H25         5.1600   -6.8893   -4.4226 H         1 <0>         0.1243
     70 H26         5.0000   -7.9621   -2.2416 H         1 <0>         0.1292
     71 H27         0.5496   -0.1141    2.0272 H         1 <0>         0.4125
     72 H28         5.0278   -0.6662   -0.7161 H         1 <0>         0.1747
     73 H29         6.0949   -1.2719    1.4401 H         1 <0>         0.1489
     74 H30         6.8933   -1.7498    3.2616 H         1 <0>         0.2215
     75 H31         2.1027   -0.9150    4.6603 H         1 <0>         0.1380
     76 H32         1.4741   -1.1731    7.0213 H         1 <0>         0.1324
     77 H33         3.1546   -1.8342    8.6909 H         1 <0>         0.1329
     78 H34         5.4775   -2.2520    8.0183 H         1 <0>         0.1330
@<TRIPOS>BOND
     1    1    2 1
     2    1   45 1
     3    1   46 1
     4    1   47 1
     5    2    3 1
     6    2   29 1
     7    2   48 1
     8    3    8 1
     9    3    4 1
    10    3   49 1
    11    4    5 1
    12    4   50 1
    13    4   51 1
    14    5    6 1
    15    5   16 am
    16    6    7 1
    17    6   52 1
    18    6   53 1
    19    7    8 1
    20    7   54 1
    21    7   55 1
    22    8    9 1
    23    9   10 1
    24    9   56 1
    25    9   57 1
    26   10   15 ar
    27   10   11 ar
    28   11   12 ar
    29   11   58 1
    30   12   13 ar
    31   12   59 1
    32   13   14 ar
    33   13   60 1
    34   14   15 ar
    35   14   61 1
    36   15   62 1
    37   16   17 2
    38   16   18 am
    39   18   19 1
    40   18   63 1
    41   19   24 ar
    42   19   20 ar
    43   20   21 ar
    44   20   64 1
    45   21   22 ar
    46   21   65 1
    47   22   23 ar
    48   22   66 1
    49   23   28 ar
    50   23   24 ar
    51   24   25 ar
    52   25   26 ar
    53   25   67 1
    54   26   27 ar
    55   26   68 1
    56   27   28 ar
    57   27   69 1
    58   28   70 1
    59   29   30 1
    60   29   71 1
    61   30   35 ar
    62   30   31 ar
    63   31   32 ar
    64   32   33 ar
    65   32   72 1
    66   33   34 ar
    67   33   73 1
    68   34   35 ar
    69   34   36 1
    70   36   40 1
    71   36   37 1
    72   37   38 2
    73   37   74 1
    74   38   39 1
    75   39   44 ar
    76   39   40 ar
    77   40   41 ar
    78   41   42 ar
    79   41   75 1
    80   42   43 ar
    81   42   76 1
    82   43   44 ar
    83   43   77 1
    84   44   78 1
@<TRIPOS>MOLECULE
CHEMBL572199__1
   78    84     0     0     0
SMALL
USER_CHARGES

@<TRIPOS>ATOM
      1 C1          0.1910    0.7782   -0.3442 C.3       1 <0>        -0.1580
      2 C2         -0.0602   -0.7251   -0.4773 C.3       1 <0>         0.1657
      3 C3         -1.5584   -1.0056   -0.3447 C.3       1 <0>         0.0632
      4 C4         -2.0244   -0.6375    1.0680 C.3       1 <0>         0.1359
      5 N1         -3.4878   -0.7725    1.1272 N.am      1 <0>        -0.6242
      6 C5         -4.2908   -0.1035    0.0924 C.3       1 <0>         0.1134
      7 C6         -3.7355   -0.4925   -1.2819 C.3       1 <0>         0.0371
      8 N2         -2.2968   -0.1994   -1.3260 N.3       1 <0>        -0.5154
      9 C7         -1.7606   -0.3965   -2.6794 C.3       1 <0>         0.0843
     10 C8         -2.3693    0.6174   -3.6134 C.ar      1 <0>        -0.0791
     11 C9         -3.5442    0.3248   -4.2805 C.ar      1 <0>        -0.1168
     12 C10        -4.1026    1.2549   -5.1372 C.ar      1 <0>        -0.1197
     13 C11        -3.4864    2.4777   -5.3266 C.ar      1 <0>        -0.1175
     14 C12        -2.3119    2.7706   -4.6589 C.ar      1 <0>        -0.1189
     15 C13        -1.7559    1.8422   -3.7988 C.ar      1 <0>        -0.0960
     16 C14        -4.0773   -1.4906    2.1036 C.2       1 <0>         0.7084
     17 O1         -3.3967   -2.1135    2.8955 O.2       1 <0>        -0.5623
     18 N3         -5.4212   -1.5183    2.2020 N.am      1 <0>        -0.6747
     19 C15        -6.0295   -2.1848    3.2676 C.ar      1 <0>         0.1698
     20 C16        -5.3083   -2.4843    4.4031 C.ar      1 <0>        -0.1449
     21 C17        -5.9049   -3.1487    5.4705 C.ar      1 <0>        -0.0878
     22 C18        -7.2140   -3.5206    5.4238 C.ar      1 <0>        -0.1322
     23 C19        -7.9845   -3.2336    4.2844 C.ar      1 <0>        -0.0318
     24 C20        -7.3897   -2.5525    3.1937 C.ar      1 <0>        -0.0686
     25 C21        -8.1624   -2.2617    2.0584 C.ar      1 <0>        -0.1114
     26 C22        -9.4722   -2.6316    2.0217 C.ar      1 <0>        -0.1141
     27 C23       -10.0599   -3.2958    3.0966 C.ar      1 <0>        -0.1157
     28 C24        -9.3381   -3.6055    4.2081 C.ar      1 <0>        -0.1026
     29 N4          0.6652   -1.4368    0.5780 N.pl3     1 <0>        -0.6904
     30 C25         1.9942   -1.7772    0.3956 C.ar      1 <0>         0.6034
     31 N5          2.5961   -1.4468   -0.7377 N.ar      1 <0>        -0.5745
     32 C26         3.8666   -1.7552   -0.9479 C.ar      1 <0>         0.2227
     33 C27         4.5693   -2.4313    0.0324 C.ar      1 <0>        -0.3072
     34 C28         3.9086   -2.7654    1.2140 C.ar      1 <0>         0.4510
     35 N6          2.6342   -2.4204    1.3602 N.ar      1 <0>        -0.5905
     36 N7          4.5770   -3.4471    2.2289 N.pl3     1 <0>        -0.4406
     37 C29         5.8807   -3.8489    2.2118 C.2       1 <0>         0.2742
     38 N8          6.1745   -4.4572    3.3230 N.2       1 <0>        -0.4707
     39 C30         5.0829   -4.4893    4.1311 C.ar      1 <0>         0.0423
     40 C31         4.0442   -3.8378    3.4448 C.ar      1 <0>         0.0569
     41 C32         2.7957   -3.7120    4.0356 C.ar      1 <0>        -0.0890
     42 C33         2.5790   -4.2248    5.2974 C.ar      1 <0>        -0.1021
     43 C34         3.6020   -4.8658    5.9808 C.ar      1 <0>        -0.1194
     44 C35         4.8452   -5.0068    5.4067 C.ar      1 <0>        -0.0667
     45 H1          1.2584    0.9780   -0.4387 H         1 <0>         0.0594
     46 H2         -0.3486    1.3077   -1.1294 H         1 <0>         0.0812
     47 H3         -0.1577    1.1200    0.6303 H         1 <0>         0.0580
     48 H4          0.2885   -1.0669   -1.4519 H         1 <0>         0.1004
     49 H5         -1.7479   -2.0634   -0.5266 H         1 <0>         0.0566
     50 H6         -1.5650   -1.3105    1.7920 H         1 <0>         0.0969
     51 H7         -1.7423    0.3916    1.2901 H         1 <0>         0.0859
     52 H8         -5.3298   -0.4233    0.1714 H         1 <0>         0.0782
     53 H9         -4.2266    0.9770    0.2207 H         1 <0>         0.0863
     54 H10        -3.8951   -1.5575   -1.4504 H         1 <0>         0.0424
     55 H11        -4.2471    0.0794   -2.0560 H         1 <0>         0.1008
     56 H12        -0.6779   -0.2715   -2.6631 H         1 <0>         0.0957
     57 H13        -2.0052   -1.4012   -3.0243 H         1 <0>         0.0465
     58 H14        -4.0257   -0.6305   -4.1325 H         1 <0>         0.1172
     59 H15        -5.0201    1.0261   -5.6589 H         1 <0>         0.1211
     60 H16        -3.9222    3.2041   -5.9966 H         1 <0>         0.1211
     61 H17        -1.8303    3.7258   -4.8071 H         1 <0>         0.1223
     62 H18        -0.8403    2.0725   -3.2743 H         1 <0>         0.1231
     63 H19        -5.9657   -1.0751    1.5327 H         1 <0>         0.4051
     64 H20        -4.2681   -2.2005    4.4652 H         1 <0>         0.1618
     65 H21        -5.3200   -3.3733    6.3502 H         1 <0>         0.1268
     66 H22        -7.6595   -4.0361    6.2617 H         1 <0>         0.1274
     67 H23        -7.7201   -1.7469    1.2183 H         1 <0>         0.1159
     68 H24       -10.0644   -2.4067    1.1470 H         1 <0>         0.1237
     69 H25       -11.1011   -3.5777    3.0427 H         1 <0>         0.1245
     70 H26        -9.8064   -4.1218    5.0330 H         1 <0>         0.1298
     71 H27         0.2139   -1.6694    1.4045 H         1 <0>         0.4140
     72 H28         4.3485   -1.4819   -1.8750 H         1 <0>         0.1791
     73 H29         5.6063   -2.6951   -0.1140 H         1 <0>         0.1511
     74 H30         6.5680   -3.6860    1.3949 H         1 <0>         0.2229
     75 H31         1.9953   -3.2134    3.5091 H         1 <0>         0.1385
     76 H32         1.6065   -4.1263    5.7567 H         1 <0>         0.1337
     77 H33         3.4199   -5.2628    6.9686 H         1 <0>         0.1335
     78 H34         5.6372   -5.5061    5.9451 H         1 <0>         0.1334
@<TRIPOS>BOND
     1    1    2 1
     2    1   45 1
     3    1   46 1
     4    1   47 1
     5    2    3 1
     6    2   29 1
     7    2   48 1
     8    3    8 1
     9    3    4 1
    10    3   49 1
    11    4    5 1
    12    4   50 1
    13    4   51 1
    14    5    6 1
    15    5   16 am
    16    6    7 1
    17    6   52 1
    18    6   53 1
    19    7    8 1
    20    7   54 1
    21    7   55 1
    22    8    9 1
    23    9   10 1
    24    9   56 1
    25    9   57 1
    26   10   15 ar
    27   10   11 ar
    28   11   12 ar
    29   11   58 1
    30   12   13 ar
    31   12   59 1
    32   13   14 ar
    33   13   60 1
    34   14   15 ar
    35   14   61 1
    36   15   62 1
    37   16   17 2
    38   16   18 am
    39   18   19 1
    40   18   63 1
    41   19   24 ar
    42   19   20 ar
    43   20   21 ar
    44   20   64 1
    45   21   22 ar
    46   21   65 1
    47   22   23 ar
    48   22   66 1
    49   23   28 ar
    50   23   24 ar
    51   24   25 ar
    52   25   26 ar
    53   25   67 1
    54   26   27 ar
    55   26   68 1
    56   27   28 ar
    57   27   69 1
    58   28   70 1
    59   29   30 1
    60   29   71 1
    61   30   35 ar
    62   30   31 ar
    63   31   32 ar
    64   32   33 ar
    65   32   72 1
    66   33   34 ar
    67   33   73 1
    68   34   35 ar
    69   34   36 1
    70   36   40 1
    71   36   37 1
    72   37   38 2
    73   37   74 1
    74   38   39 1
    75   39   44 ar
    76   39   40 ar
    77   40   41 ar
    78   41   42 ar
    79   41   75 1
    80   42   43 ar
    81   42   76 1
    82   43   44 ar
    83   43   77 1
    84   44   78 1
@<TRIPOS>MOLECULE
CHEMBL572199__2
   78    84     0     0     0
SMALL
USER_CHARGES

@<TRIPOS>ATOM
      1 C1         -0.9448    0.0706   -0.8992 C.3       1 <0>        -0.1661
      2 C2          0.3663    0.7456   -0.4915 C.3       1 <0>         0.1257
      3 C3          0.9326    0.0523    0.7493 C.3       1 <0>         0.0599
      4 C4         -0.0831    0.1417    1.8933 C.3       1 <0>         0.1405
      5 N1         -0.2250    1.5529    2.2828 N.am      1 <0>        -0.6235
      6 C5          0.9954    2.3214    2.5708 C.3       1 <0>         0.1152
      7 C6          1.9686    2.1462    1.4002 C.3       1 <0>         0.0323
      8 N2          2.1804    0.7136    1.1538 N.3       1 <0>        -0.5155
      9 C7          3.2363    0.5016    0.1548 C.3       1 <0>         0.0845
     10 C8          4.5767    0.8205    0.7652 C.ar      1 <0>        -0.0768
     11 C9          5.0804    2.1059    0.6941 C.ar      1 <0>        -0.1140
     12 C10         6.3099    2.3984    1.2540 C.ar      1 <0>        -0.1194
     13 C11         7.0356    1.4056    1.8855 C.ar      1 <0>        -0.1181
     14 C12         6.5315    0.1205    1.9575 C.ar      1 <0>        -0.1188
     15 C13         5.3000   -0.1710    1.4013 C.ar      1 <0>        -0.0977
     16 C14        -1.4413    2.1264    2.3738 C.2       1 <0>         0.7104
     17 O1         -2.4325    1.5057    2.0414 O.2       1 <0>        -0.5611
     18 N3         -1.5588    3.3880    2.8333 N.am      1 <0>        -0.6753
     19 C15        -2.8241    3.9501    3.0142 C.ar      1 <0>         0.1722
     20 C16        -3.9369    3.1424    3.1067 C.ar      1 <0>        -0.1445
     21 C17        -5.2025    3.6925    3.2865 C.ar      1 <0>        -0.0877
     22 C18        -5.3771    5.0400    3.3760 C.ar      1 <0>        -0.1332
     23 C19        -4.2682    5.8984    3.2871 C.ar      1 <0>        -0.0314
     24 C20        -2.9741    5.3498    3.1098 C.ar      1 <0>        -0.0686
     25 C21        -1.8667    6.2085    3.0266 C.ar      1 <0>        -0.1102
     26 C22        -2.0487    7.5543    3.1230 C.ar      1 <0>        -0.1149
     27 C23        -3.3204    8.0947    3.3039 C.ar      1 <0>        -0.1156
     28 C24        -4.4182    7.2933    3.3761 C.ar      1 <0>        -0.1032
     29 N4          1.3301    0.6442   -1.5902 N.pl3     1 <0>        -0.6898
     30 C25         1.3852    1.6339   -2.5560 C.ar      1 <0>         0.5986
     31 N5          0.5623    2.6688   -2.4682 N.ar      1 <0>        -0.5726
     32 C26         0.5862    3.6352   -3.3731 C.ar      1 <0>         0.2223
     33 C27         1.4842    3.5576   -4.4216 C.ar      1 <0>        -0.3066
     34 C28         2.3372    2.4564   -4.4869 C.ar      1 <0>         0.4510
     35 N6          2.2627    1.5258   -3.5420 N.ar      1 <0>        -0.5903
     36 N7          3.2578    2.3363   -5.5259 N.pl3     1 <0>        -0.4401
     37 C29         3.4443    3.2200   -6.5485 C.2       1 <0>         0.2744
     38 N8          4.3852    2.7950   -7.3393 N.2       1 <0>        -0.4700
     39 C30         4.8689    1.6107   -6.8818 C.ar      1 <0>         0.0428
     40 C31         4.1578    1.3014   -5.7100 C.ar      1 <0>         0.0575
     41 C32         4.4445    0.1372   -5.0129 C.ar      1 <0>        -0.0890
     42 C33         5.4297   -0.7121   -5.4713 C.ar      1 <0>        -0.1026
     43 C34         6.1371   -0.4097   -6.6257 C.ar      1 <0>        -0.1195
     44 C35         5.8606    0.7374   -7.3347 C.ar      1 <0>        -0.0659
     45 H1         -1.6400    0.0904   -0.0600 H         1 <0>         0.0818
     46 H2         -1.3803    0.6035   -1.7445 H         1 <0>         0.0595
     47 H3         -0.7481   -0.9631   -1.1837 H         1 <0>         0.0566
     48 H4          0.1799    1.7959   -0.2676 H         1 <0>         0.1051
     49 H5          1.1330   -0.9946    0.5214 H         1 <0>         0.1041
     50 H6         -1.0460   -0.2445    1.5590 H         1 <0>         0.1095
     51 H7          0.2721   -0.4391    2.7445 H         1 <0>         0.0848
     52 H8          0.7456    3.3763    2.6845 H         1 <0>         0.0764
     53 H9          1.4543    1.9501    3.4871 H         1 <0>         0.0850
     54 H10         1.5508    2.6110    0.5071 H         1 <0>         0.0484
     55 H11         2.9204    2.6178    1.6447 H         1 <0>         0.0925
     56 H12         3.2240   -0.5382   -0.1719 H         1 <0>         0.0804
     57 H13         3.0626    1.1535   -0.7014 H         1 <0>         0.0629
     58 H14         4.5135    2.8815    0.2007 H         1 <0>         0.1114
     59 H15         6.7038    3.4024    1.1978 H         1 <0>         0.1198
     60 H16         7.9965    1.6340    2.3224 H         1 <0>         0.1210
     61 H17         7.0986   -0.6552    2.4506 H         1 <0>         0.1220
     62 H18         4.9045   -1.1742    1.4608 H         1 <0>         0.1214
     63 H19        -0.7643    3.9054    3.0383 H         1 <0>         0.4045
     64 H20        -3.8256    2.0704    3.0384 H         1 <0>         0.1616
     65 H21        -6.0603    3.0400    3.3559 H         1 <0>         0.1262
     66 H22        -6.3671    5.4486    3.5149 H         1 <0>         0.1268
     67 H23        -0.8752    5.8036    2.8872 H         1 <0>         0.1156
     68 H24        -1.1950    8.2127    3.0586 H         1 <0>         0.1230
     69 H25        -3.4378    9.1657    3.3781 H         1 <0>         0.1240
     70 H26        -5.3979    7.7261    3.5149 H         1 <0>         0.1293
     71 H27         1.9297   -0.1167   -1.6407 H         1 <0>         0.4128
     72 H28        -0.0886    4.4746   -3.2933 H         1 <0>         0.1774
     73 H29         1.5239    4.3321   -5.1732 H         1 <0>         0.1509
     74 H30         2.8912    4.1380   -6.6820 H         1 <0>         0.2226
     75 H31         3.8978   -0.1036   -4.1131 H         1 <0>         0.1372
     76 H32         5.6522   -1.6184   -4.9277 H         1 <0>         0.1327
     77 H33         6.9065   -1.0827   -6.9743 H         1 <0>         0.1336
     78 H34         6.4161    0.9669   -8.2320 H         1 <0>         0.1337
@<TRIPOS>BOND
     1    1    2 1
     2    1   45 1
     3    1   46 1
     4    1   47 1
     5    2    3 1
     6    2   29 1
     7    2   48 1
     8    3    8 1
     9    3    4 1
    10    3   49 1
    11    4    5 1
    12    4   50 1
    13    4   51 1
    14    5    6 1
    15    5   16 am
    16    6    7 1
    17    6   52 1
    18    6   53 1
    19    7    8 1
    20    7   54 1
    21    7   55 1
    22    8    9 1
    23    9   10 1
    24    9   56 1
    25    9   57 1
    26   10   15 ar
    27   10   11 ar
    28   11   12 ar
    29   11   58 1
    30   12   13 ar
    31   12   59 1
    32   13   14 ar
    33   13   60 1
    34   14   15 ar
    35   14   61 1
    36   15   62 1
    37   16   17 2
    38   16   18 am
    39   18   19 1
    40   18   63 1
    41   19   24 ar
    42   19   20 ar
    43   20   21 ar
    44   20   64 1
    45   21   22 ar
    46   21   65 1
    47   22   23 ar
    48   22   66 1
    49   23   28 ar
    50   23   24 ar
    51   24   25 ar
    52   25   26 ar
    53   25   67 1
    54   26   27 ar
    55   26   68 1
    56   27   28 ar
    57   27   69 1
    58   28   70 1
    59   29   30 1
    60   29   71 1
    61   30   35 ar
    62   30   31 ar
    63   31   32 ar
    64   32   33 ar
    65   32   72 1
    66   33   34 ar
    67   33   73 1
    68   34   35 ar
    69   34   36 1
    70   36   40 1
    71   36   37 1
    72   37   38 2
    73   37   74 1
    74   38   39 1
    75   39   44 ar
    76   39   40 ar
    77   40   41 ar
    78   41   42 ar
    79   41   75 1
    80   42   43 ar
    81   42   76 1
    82   43   44 ar
    83   43   77 1
    84   44   78 1
@<TRIPOS>MOLECULE
CHEMBL572199__3
   78    84     0     0     0
SMALL
USER_CHARGES

@<TRIPOS>ATOM
      1 C1         -1.6388    0.2182    0.6760 C.3       1 <0>        -0.1680
      2 C2         -0.1550    0.5210    0.4578 C.3       1 <0>         0.1651
      3 C3          0.6604   -0.0653    1.6121 C.3       1 <0>         0.0601
      4 C4          0.5771   -1.5949    1.5717 C.3       1 <0>         0.1402
      5 N1          1.4843   -2.1393    2.5935 N.am      1 <0>        -0.6242
      6 C5          2.8765   -1.6655    2.6115 C.3       1 <0>         0.1137
      7 C6          2.8692   -0.1331    2.6109 C.3       1 <0>         0.0353
      8 N2          2.0636    0.3491    1.4812 N.3       1 <0>        -0.5212
      9 C7          2.1710    1.8076    1.3426 C.3       1 <0>         0.0890
     10 C8          3.6032    2.1812    1.0596 C.ar      1 <0>        -0.0792
     11 C9          4.4687    2.4434    2.1051 C.ar      1 <0>        -0.1164
     12 C10         5.7825    2.7861    1.8454 C.ar      1 <0>        -0.1196
     13 C11         6.2309    2.8662    0.5403 C.ar      1 <0>        -0.1165
     14 C12         5.3657    2.6030   -0.5052 C.ar      1 <0>        -0.1189
     15 C13         4.0530    2.2562   -0.2454 C.ar      1 <0>        -0.0924
     16 C14         1.0511   -3.0479    3.4897 C.2       1 <0>         0.7091
     17 O1         -0.0765   -3.4949    3.4058 O.2       1 <0>        -0.5613
     18 N3          1.8679   -3.4611    4.4790 N.am      1 <0>        -0.6753
     19 C15         1.4674   -4.4933    5.3297 C.ar      1 <0>         0.1709
     20 C16         0.4379   -5.3342    4.9659 C.ar      1 <0>        -0.1455
     21 C17         0.0306   -6.3657    5.8066 C.ar      1 <0>        -0.0873
     22 C18         0.6356   -6.5732    7.0087 C.ar      1 <0>        -0.1326
     23 C19         1.6896   -5.7384    7.4169 C.ar      1 <0>        -0.0313
     24 C20         2.1169   -4.6885    6.5670 C.ar      1 <0>        -0.0689
     25 C21         3.1736   -3.8589    6.9739 C.ar      1 <0>        -0.1112
     26 C22         3.7774   -4.0764    8.1747 C.ar      1 <0>        -0.1142
     27 C23         3.3622   -5.1129    9.0085 C.ar      1 <0>        -0.1155
     28 C24         2.3327   -5.9288    8.6523 C.ar      1 <0>        -0.1028
     29 N4          0.2851   -0.0781   -0.8046 N.pl3     1 <0>        -0.6762
     30 C25         0.1068    0.6060   -1.9945 C.ar      1 <0>         0.6035
     31 N5         -0.4589    1.8040   -1.9724 N.ar      1 <0>        -0.5771
     32 C26        -0.6456    2.4886   -3.0904 C.ar      1 <0>         0.2233
     33 C27        -0.2426    1.9403   -4.2941 C.ar      1 <0>        -0.3102
     34 C28         0.3495    0.6779   -4.2851 C.ar      1 <0>         0.4511
     35 N6          0.5107    0.0492   -3.1262 N.ar      1 <0>        -0.5907
     36 N7          0.7706    0.0864   -5.4744 N.pl3     1 <0>        -0.4401
     37 C29         0.6747    0.6245   -6.7245 C.2       1 <0>         0.2747
     38 N8          1.1656   -0.1988   -7.6033 N.2       1 <0>        -0.4714
     39 C30         1.6107   -1.3218   -6.9816 C.ar      1 <0>         0.0425
     40 C31         1.3694   -1.1540   -5.6076 C.ar      1 <0>         0.0580
     41 C32         1.7303   -2.1516   -4.7140 C.ar      1 <0>        -0.0884
     42 C33         2.3280   -3.3047   -5.1779 C.ar      1 <0>        -0.1035
     43 C34         2.5716   -3.4739   -6.5330 C.ar      1 <0>        -0.1199
     44 C35         2.2130   -2.4978   -7.4351 C.ar      1 <0>        -0.0667
     45 H1         -1.9424    0.5789    1.6588 H         1 <0>         0.0695
     46 H2         -2.2284    0.7179   -0.0925 H         1 <0>         0.0693
     47 H3         -1.8025   -0.8578    0.6174 H         1 <0>         0.0622
     48 H4         -0.0062    1.6001    0.4192 H         1 <0>         0.1047
     49 H5          0.2612    0.2962    2.5597 H         1 <0>         0.0683
     50 H6         -0.4443   -1.9117    1.7827 H         1 <0>         0.1064
     51 H7          0.8782   -1.9522    0.5869 H         1 <0>         0.0735
     52 H8          3.3754   -2.0289    3.5099 H         1 <0>         0.0782
     53 H9          3.3987   -2.0295    1.7267 H         1 <0>         0.0855
     54 H10         2.4395    0.2290    3.5449 H         1 <0>         0.0422
     55 H11         3.8904    0.2355    2.5130 H         1 <0>         0.0992
     56 H12         1.5389    2.1420    0.5199 H         1 <0>         0.0933
     57 H13         1.8468    2.2853    2.2672 H         1 <0>         0.0457
     58 H14         4.1183    2.3809    3.1248 H         1 <0>         0.1180
     59 H15         6.4585    2.9917    2.6623 H         1 <0>         0.1220
     60 H16         7.2572    3.1346    0.3374 H         1 <0>         0.1216
     61 H17         5.7160    2.6659   -1.5249 H         1 <0>         0.1203
     62 H18         3.3780    2.0470   -1.0621 H         1 <0>         0.1155
     63 H19         2.7340   -3.0414    4.5999 H         1 <0>         0.4050
     64 H20        -0.0588   -5.1908    4.0176 H         1 <0>         0.1608
     65 H21        -0.7787   -7.0121    5.5007 H         1 <0>         0.1267
     66 H22         0.3053   -7.3785    7.6481 H         1 <0>         0.1274
     67 H23         3.5062   -3.0522    6.3374 H         1 <0>         0.1158
     68 H24         4.5901   -3.4366    8.4853 H         1 <0>         0.1236
     69 H25         3.8582   -5.2648    9.9557 H         1 <0>         0.1245
     70 H26         2.0207   -6.7272    9.3093 H         1 <0>         0.1298
     71 H27         0.7015   -0.9542   -0.8066 H         1 <0>         0.4149
     72 H28        -1.1078    3.4642   -3.0624 H         1 <0>         0.1774
     73 H29        -0.3836    2.4775   -5.2204 H         1 <0>         0.1494
     74 H30         0.2526    1.5924   -6.9511 H         1 <0>         0.2225
     75 H31         1.5439   -2.0255   -3.6577 H         1 <0>         0.1385
     76 H32         2.6086   -4.0809   -4.4813 H         1 <0>         0.1323
     77 H33         3.0407   -4.3813   -6.8838 H         1 <0>         0.1329
     78 H34         2.4067   -2.6360   -8.4885 H         1 <0>         0.1332
@<TRIPOS>BOND
     1    1    2 1
     2    1   45 1
     3    1   46 1
     4    1   47 1
     5    2    3 1
     6    2   29 1
     7    2   48 1
     8    3    8 1
     9    3    4 1
    10    3   49 1
    11    4    5 1
    12    4   50 1
    13    4   51 1
    14    5    6 1
    15    5   16 am
    16    6    7 1
    17    6   52 1
    18    6   53 1
    19    7    8 1
    20    7   54 1
    21    7   55 1
    22    8    9 1
    23    9   10 1
    24    9   56 1
    25    9   57 1
    26   10   15 ar
    27   10   11 ar
    28   11   12 ar
    29   11   58 1
    30   12   13 ar
    31   12   59 1
    32   13   14 ar
    33   13   60 1
    34   14   15 ar
    35   14   61 1
    36   15   62 1
    37   16   17 2
    38   16   18 am
    39   18   19 1
    40   18   63 1
    41   19   24 ar
    42   19   20 ar
    43   20   21 ar
    44   20   64 1
    45   21   22 ar
    46   21   65 1
    47   22   23 ar
    48   22   66 1
    49   23   28 ar
    50   23   24 ar
    51   24   25 ar
    52   25   26 ar
    53   25   67 1
    54   26   27 ar
    55   26   68 1
    56   27   28 ar
    57   27   69 1
    58   28   70 1
    59   29   30 1
    60   29   71 1
    61   30   35 ar
    62   30   31 ar
    63   31   32 ar
    64   32   33 ar
    65   32   72 1
    66   33   34 ar
    67   33   73 1
    68   34   35 ar
    69   34   36 1
    70   36   40 1
    71   36   37 1
    72   37   38 2
    73   37   74 1
    74   38   39 1
    75   39   44 ar
    76   39   40 ar
    77   40   41 ar
    78   41   42 ar
    79   41   75 1
    80   42   43 ar
    81   42   76 1
    82   43   44 ar
    83   43   77 1
    84   44   78 1
@<TRIPOS>MOLECULE
CHEMBL264406
   43    46     0     0     0
SMALL
USER_CHARGES

@<TRIPOS>ATOM
      1 C1         -0.8399    1.3825   -0.4960 C.3       1 <0>        -0.1444
      2 C2         -0.4487   -0.0800   -0.2751 C.3       1 <0>         0.1895
      3 C3          0.2657   -0.2191    1.0707 C.3       1 <0>        -0.1619
      4 C4         -1.7070   -0.9504   -0.2769 C.3       1 <0>        -0.1623
      5 N1          0.4467   -0.5139   -1.3504 N.pl3     1 <0>        -0.3673
      6 C5          0.9850   -1.7606   -1.4719 C.ar      1 <0>         0.3804
      7 C6          1.7779   -1.7525   -2.6346 C.ar      1 <0>        -0.3265
      8 C7          1.6725   -0.4062   -3.1985 C.2       1 <0>         0.1648
      9 N2          0.8772    0.2851   -2.4149 N.2       1 <0>        -0.2278
     10 C8          2.3354    0.0839   -4.4273 C.ar      1 <0>        -0.0123
     11 C9          2.1657   -0.5844   -5.6280 C.ar      1 <0>        -0.0980
     12 C10         2.7848   -0.1296   -6.7863 C.ar      1 <0>        -0.1173
     13 C11         3.5732    0.9813   -6.7745 C.ar      1 <0>        -0.0882
     14 C12         3.7730    1.6905   -5.5777 C.ar      1 <0>        -0.0497
     15 C13         3.1451    1.2445   -4.3891 C.ar      1 <0>        -0.0279
     16 C14         3.3417    1.9555   -3.1967 C.ar      1 <0>        -0.1006
     17 C15         4.1282    3.0676   -3.1964 C.ar      1 <0>        -0.1104
     18 C16         4.7418    3.5114   -4.3658 C.ar      1 <0>        -0.1109
     19 C17         4.5822    2.8394   -5.5388 C.ar      1 <0>        -0.1059
     20 C18         2.4535   -2.9296   -2.9946 C.ar      1 <0>         0.5193
     21 N3          2.3130   -4.0004   -2.2190 N.ar      1 <0>        -0.6076
     22 C19         1.5580   -3.9636   -1.1356 C.ar      1 <0>         0.3851
     23 N4          0.9072   -2.8844   -0.7597 N.ar      1 <0>        -0.5722
     24 N5          3.2442   -2.9742   -4.1267 N.pl3     1 <0>        -0.8244
     25 H1          0.0565    2.0026   -0.4948 H         1 <0>         0.0672
     26 H2         -1.3488    1.4816   -1.4548 H         1 <0>         0.0677
     27 H3         -1.5061    1.7053    0.3040 H         1 <0>         0.0758
     28 H4         -0.4005    0.1036    1.8708 H         1 <0>         0.0800
     29 H5          0.5445   -1.2611    1.2282 H         1 <0>         0.0771
     30 H6          1.1622    0.4009    1.0720 H         1 <0>         0.0594
     31 H7         -2.2159   -0.8514   -1.2356 H         1 <0>         0.0596
     32 H8         -1.4282   -1.9924   -0.1194 H         1 <0>         0.0774
     33 H9         -2.3732   -0.6277    0.5232 H         1 <0>         0.0798
     34 H10         1.5462   -1.4684   -5.6648 H         1 <0>         0.1296
     35 H11         2.6385   -0.6665   -7.7119 H         1 <0>         0.1329
     36 H12         4.0456    1.3173   -7.6858 H         1 <0>         0.1333
     37 H13         2.8715    1.6231   -2.2830 H         1 <0>         0.1262
     38 H14         4.2779    3.6134   -2.2765 H         1 <0>         0.1247
     39 H15         5.3601    4.3965   -4.3394 H         1 <0>         0.1263
     40 H16         5.0648    3.1941   -6.4375 H         1 <0>         0.1313
     41 H17         1.4713   -4.8564   -0.5341 H         1 <0>         0.2041
     42 H18         3.4299   -2.1605   -4.6209 H         1 <0>         0.4127
     43 H19         3.6135   -3.8193   -4.4274 H         1 <0>         0.4111
@<TRIPOS>BOND
     1    1    2 1
     2    1   25 1
     3    1   26 1
     4    1   27 1
     5    2    3 1
     6    2    4 1
     7    2    5 1
     8    3   28 1
     9    3   29 1
    10    3   30 1
    11    4   31 1
    12    4   32 1
    13    4   33 1
    14    5    9 1
    15    5    6 1
    16    6   23 ar
    17    6    7 ar
    18    7    8 1
    19    7   20 ar
    20    8    9 2
    21    8   10 1
    22   10   15 ar
    23   10   11 ar
    24   11   12 ar
    25   11   34 1
    26   12   13 ar
    27   12   35 1
    28   13   14 ar
    29   13   36 1
    30   14   19 ar
    31   14   15 ar
    32   15   16 ar
    33   16   17 ar
    34   16   37 1
    35   17   18 ar
    36   17   38 1
    37   18   19 ar
    38   18   39 1
    39   19   40 1
    40   20   21 ar
    41   20   24 1
    42   21   22 ar
    43   22   23 ar
    44   22   41 1
    45   24   42 1
    46   24   43 1
@<TRIPOS>MOLECULE
CHEMBL468117
   50    51     0     0     0
SMALL
USER_CHARGES

@<TRIPOS>ATOM
      1 C1         -0.0187    1.5264    0.0104 C.3       1 <0>        -0.1816
      2 C2          0.0021   -0.0041    0.0020 C.3       1 <0>         0.1086
      3 H1         -1.0239   -0.3800    0.0098 H         1 <0>         0.1155
      4 C3          0.7223   -0.5088   -1.2462 C.3       1 <0>        -0.1842
      5 C4         -0.1773   -0.3917   -2.4778 C.3       1 <0>        -0.1045
      6 C5          0.4838   -1.1510   -3.6342 C.3       1 <0>        -0.1743
      7 C6          1.7969   -0.4903   -3.9739 C.2       1 <0>         0.3253
      8 O1          1.8026    0.6079   -4.4764 O.2       1 <0>        -0.4229
      9 C7          3.0965   -1.1937   -3.6895 C.3       1 <0>         0.0662
     10 H2          3.0292   -1.7031   -2.7282 H         1 <0>         0.0912
     11 C8          4.2368   -0.1785   -3.6508 C.3       1 <0>         0.1240
     12 H3          3.8723    0.7636   -3.2408 H         1 <0>         0.0727
     13 C9          5.3743   -0.7123   -2.7677 C.3       1 <0>        -0.1324
     14 C10         5.3452    0.0230   -1.4435 C.2       1 <0>        -0.1145
     15 C11         4.2893   -0.1578   -0.6608 C.2       1 <0>        -0.1484
     16 C12         4.1747    0.5258    0.6335 C.ar      1 <0>         0.0633
     17 C13         5.1793    1.3592    1.0991 C.ar      1 <0>        -0.1698
     18 C14         5.0328    2.0439    2.2956 C.ar      1 <0>         0.1864
     19 C15         3.8650    1.8982    3.0403 C.ar      1 <0>        -0.2537
     20 C16         2.8606    1.0479    2.6100 C.ar      1 <0>         0.2122
     21 C17         3.0136    0.3290    1.4178 C.ar      1 <0>        -0.2227
     22 C18         2.0254   -0.6615    0.9924 C.2       1 <0>         0.5467
     23 O2          2.3960   -1.6811    0.4510 O.2       1 <0>        -0.4570
     24 O3          0.6980   -0.4874    1.1630 O.3       1 <0>        -0.3721
     25 O4          1.7285    0.9100    3.3448 O.3       1 <0>        -0.4837
     26 O5          6.0264    2.8536    2.7415 O.3       1 <0>        -0.3059
     27 C19         5.8065    3.5276    3.9822 C.3       1 <0>         0.0220
     28 O6          4.7270    0.0383   -4.9757 O.3       1 <0>        -0.5397
     29 O7          3.3504   -2.1544   -4.7172 O.3       1 <0>        -0.5198
     30 H4          1.0039    1.9037    0.0027 H         1 <0>         0.0599
     31 H5         -0.5459    1.8875   -0.8726 H         1 <0>         0.0796
     32 H6         -0.5289    1.8780    0.9072 H         1 <0>         0.0722
     33 H7          1.6271    0.0773   -1.4063 H         1 <0>         0.0667
     34 H8          0.9894   -1.5586   -1.1104 H         1 <0>         0.0987
     35 H9         -1.1509   -0.8317   -2.2632 H         1 <0>         0.0856
     36 H10        -0.2975    0.6548   -2.7526 H         1 <0>         0.0778
     37 H11         0.6617   -2.1839   -3.3359 H         1 <0>         0.0898
     38 H12        -0.1712   -1.1300   -4.5046 H         1 <0>         0.1033
     39 H13         5.2377   -1.7789   -2.5964 H         1 <0>         0.0917
     40 H14         6.3310   -0.5379   -3.2595 H         1 <0>         0.0900
     41 H15         6.1568    0.6677   -1.1570 H         1 <0>         0.1268
     42 H16         3.4933   -0.8155   -0.9907 H         1 <0>         0.1344
     43 H17         6.0887    1.4764    0.5287 H         1 <0>         0.1438
     44 H18         3.7424    2.4523    3.9593 H         1 <0>         0.1450
     45 H19         1.0289    1.5351    3.1104 H         1 <0>         0.4015
     46 H20         6.6756    4.1401    4.2221 H         1 <0>         0.1073
     47 H21         4.9254    4.1639    3.8988 H         1 <0>         0.0610
     48 H22         5.6506    2.7929    4.7722 H         1 <0>         0.0620
     49 H23         5.4544    0.6734   -5.0270 H         1 <0>         0.3775
     50 H24         2.6679   -2.8349   -4.7967 H         1 <0>         0.3789
@<TRIPOS>BOND
     1    1    2 1
     2    1   30 1
     3    1   31 1
     4    1   32 1
     5    2    3 1
     6    2   24 1
     7    2    4 1
     8    4    5 1
     9    4   33 1
    10    4   34 1
    11    5    6 1
    12    5   35 1
    13    5   36 1
    14    6    7 1
    15    6   37 1
    16    6   38 1
    17    7    8 2
    18    7    9 1
    19    9   10 1
    20    9   11 1
    21    9   29 1
    22   11   12 1
    23   11   13 1
    24   11   28 1
    25   13   14 1
    26   13   39 1
    27   13   40 1
    28   14   15 2
    29   14   41 1
    30   15   16 1
    31   15   42 1
    32   16   21 ar
    33   16   17 ar
    34   17   18 ar
    35   17   43 1
    36   18   19 ar
    37   18   26 1
    38   19   20 ar
    39   19   44 1
    40   20   21 ar
    41   20   25 1
    42   21   22 1
    43   22   23 2
    44   22   24 1
    45   25   45 1
    46   26   27 1
    47   27   46 1
    48   27   47 1
    49   27   48 1
    50   28   49 1
    51   29   50 1
@<TRIPOS>MOLECULE
CHEMBL271650
   69    72     0     0     0
SMALL
USER_CHARGES

@<TRIPOS>ATOM
      1 C1         -1.2776    1.0670    0.1873 C.3       1 <0>        -0.1214
      2 C2         -0.6189   -0.2884    0.1777 C.ar      1 <0>        -0.0794
      3 C3         -0.6452   -1.0590   -0.9698 C.ar      1 <0>        -0.1067
      4 C4         -0.0443   -2.3009   -0.9864 C.ar      1 <0>        -0.0919
      5 C5          0.5936   -2.7832    0.1582 C.ar      1 <0>        -0.1256
      6 C6          0.6205   -2.0057    1.3157 C.ar      1 <0>        -0.0521
      7 C7          0.0179   -0.7570    1.3206 C.ar      1 <0>         0.1371
      8 N1          0.0466    0.0291    2.4773 N.am      1 <0>        -0.6701
      9 C8         -0.0189   -0.5544    3.6905 C.2       1 <0>         0.5719
     10 O1         -0.0174   -1.7672    3.7828 O.2       1 <0>        -0.4861
     11 C9         -0.0921    0.2762    4.9040 C.ar      1 <0>        -0.3119
     12 C10        -0.1009    1.6734    4.8195 C.ar      1 <0>         0.2551
     13 N2         -0.1675    2.3826    5.9308 N.ar      1 <0>        -0.5919
     14 C11        -0.2258    1.7918    7.1180 C.ar      1 <0>         0.6165
     15 N3         -0.2202    0.4730    7.2476 N.ar      1 <0>        -0.6206
     16 C12        -0.1613   -0.3138    6.1821 C.ar      1 <0>         0.4628
     17 O2         -0.1621   -1.6596    6.3195 O.3       1 <0>        -0.2566
     18 C13        -0.2346   -2.1758    7.6501 C.3       1 <0>         0.0300
     19 N4         -0.2938    2.5747    8.2517 N.pl3     1 <0>        -0.6884
     20 C14        -0.3009    4.0349    8.1342 C.3       1 <0>         0.1528
     21 C15         1.1394    4.5493    8.0549 C.3       1 <0>        -0.1626
     22 C16         1.1274    6.0788    8.0125 C.3       1 <0>        -0.0020
     23 N5          0.4860    6.6005    9.2254 N.4       1 <0>        -0.3872
     24 C17        -0.9166    6.1703    9.2715 C.3       1 <0>         0.0001
     25 C18        -0.9832    4.6442    9.3624 C.3       1 <0>        -0.1592
     26 C19         0.5464    8.0682    9.2168 C.3       1 <0>        -0.0474
     27 C20         1.2377   -4.1137    0.1434 C.2       1 <0>         0.5603
     28 O3          1.7925   -4.5315    1.1411 O.2       1 <0>        -0.5034
     29 N6          1.2100   -4.8634   -0.9762 N.am      1 <0>        -0.6665
     30 C21         1.7107   -6.1690   -0.9561 C.ar      1 <0>         0.1486
     31 C22         2.1927   -6.7477   -2.1233 C.ar      1 <0>        -0.1174
     32 C23         2.6868   -8.0369   -2.0999 C.ar      1 <0>        -0.0957
     33 C24         2.7017   -8.7521   -0.9162 C.ar      1 <0>        -0.0903
     34 C25         2.2223   -8.1791    0.2472 C.ar      1 <0>        -0.1606
     35 C26         1.7324   -6.8877    0.2319 C.ar      1 <0>        -0.0820
     36 C27         2.2401   -8.9622    1.5347 C.3       1 <0>         0.5091
     37 F1          2.7824  -10.2306    1.3016 F         1 <0>        -0.1756
     38 F2          3.0204   -8.2879    2.4799 F         1 <0>        -0.1731
     39 F3          0.9338   -9.0952    2.0177 F         1 <0>        -0.1757
     40 H1         -0.5572    1.8233   -0.1241 H         1 <0>         0.0780
     41 H2         -2.1229    1.0651   -0.5009 H         1 <0>         0.0786
     42 H3         -1.6293    1.2929    1.1940 H         1 <0>         0.0654
     43 H4         -1.1380   -0.6877   -1.8562 H         1 <0>         0.1379
     44 H5         -0.0676   -2.9002   -1.8846 H         1 <0>         0.1294
     45 H6          1.1120   -2.3735    2.2043 H         1 <0>         0.1570
     46 H7          0.1138    0.9942    2.4064 H         1 <0>         0.4068
     47 H8         -0.0534    2.1642    3.8586 H         1 <0>         0.1788
     48 H9         -0.2272   -3.2653    7.6180 H         1 <0>         0.1099
     49 H10         0.6226   -1.8233    8.2237 H         1 <0>         0.0654
     50 H11        -1.1545   -1.8325    8.1234 H         1 <0>         0.0654
     51 H12        -0.3369    2.1583    9.1268 H         1 <0>         0.4211
     52 H13        -0.8430    4.3255    7.2344 H         1 <0>         0.1128
     53 H14         1.6944    4.2138    8.9310 H         1 <0>         0.0898
     54 H15         1.6144    4.1639    7.1528 H         1 <0>         0.1183
     55 H16         2.1513    6.4483    7.9559 H         1 <0>         0.1344
     56 H17         0.5724    6.4132    7.1360 H         1 <0>         0.1333
     57 H18        -1.4017    6.6073   10.1443 H         1 <0>         0.1374
     58 H19        -1.4280    6.5027    8.3682 H         1 <0>         0.1336
     59 H20        -2.0254    4.3267    9.3947 H         1 <0>         0.1207
     60 H21        -0.4722    4.3107   10.2656 H         1 <0>         0.0955
     61 H22         0.0259    8.4482    8.3378 H         1 <0>         0.1232
     62 H23         0.0704    8.4567   10.1172 H         1 <0>         0.1248
     63 H24         1.5878    8.3889    9.1893 H         1 <0>         0.1249
     64 H25         0.8428   -4.4973   -1.7960 H         1 <0>         0.4144
     65 H26         2.1806   -6.1901   -3.0482 H         1 <0>         0.1372
     66 H27         3.0617   -8.4875   -3.0071 H         1 <0>         0.1421
     67 H28         3.0884   -9.7603   -0.9007 H         1 <0>         0.1416
     68 H29         1.3621   -6.4392    1.1420 H         1 <0>         0.1545
     69 H30         0.9710    6.2507   10.0381 H         1 <0>         0.4252
@<TRIPOS>BOND
     1    1    2 1
     2    1   40 1
     3    1   41 1
     4    1   42 1
     5    2    7 ar
     6    2    3 ar
     7    3    4 ar
     8    3   43 1
     9    4    5 ar
    10    4   44 1
    11    5    6 ar
    12    5   27 1
    13    6    7 ar
    14    6   45 1
    15    7    8 1
    16    8    9 am
    17    8   46 1
    18    9   10 2
    19    9   11 1
    20   11   16 ar
    21   11   12 ar
    22   12   13 ar
    23   12   47 1
    24   13   14 ar
    25   14   15 ar
    26   14   19 1
    27   15   16 ar
    28   16   17 1
    29   17   18 1
    30   18   48 1
    31   18   49 1
    32   18   50 1
    33   19   20 1
    34   19   51 1
    35   20   25 1
    36   20   21 1
    37   20   52 1
    38   21   22 1
    39   21   53 1
    40   21   54 1
    41   22   23 1
    42   22   55 1
    43   22   56 1
    44   23   24 1
    45   23   26 1
    46   23   69 1
    47   24   25 1
    48   24   57 1
    49   24   58 1
    50   25   59 1
    51   25   60 1
    52   26   61 1
    53   26   62 1
    54   26   63 1
    55   27   28 2
    56   27   29 am
    57   29   30 1
    58   29   64 1
    59   30   35 ar
    60   30   31 ar
    61   31   32 ar
    62   31   65 1
    63   32   33 ar
    64   32   66 1
    65   33   34 ar
    66   33   67 1
    67   34   35 ar
    68   34   36 1
    69   35   68 1
    70   36   37 1
    71   36   38 1
    72   36   39 1
@<TRIPOS>MOLECULE
CHEMBL84046
   48    52     0     0     0
SMALL
USER_CHARGES

@<TRIPOS>ATOM
      1 C1          2.6205   -0.1996    1.3667 C.3       1 <0>        -0.1122
      2 C2          1.4465   -0.8586    0.6895 C.ar      1 <0>        -0.0719
      3 C3          1.6363   -1.5881   -0.4683 C.ar      1 <0>        -0.1108
      4 C4          0.5602   -2.1932   -1.0907 C.ar      1 <0>        -0.0991
      5 C5         -0.7101   -2.0704   -0.5573 C.ar      1 <0>        -0.1124
      6 C6         -0.9073   -1.3424    0.6003 C.ar      1 <0>        -0.0102
      7 C7          0.1740   -0.7380    1.2317 C.ar      1 <0>         0.1520
      8 N1         -0.0206   -0.0052    2.4066 N.pl3     1 <0>        -0.6453
      9 C8         -0.3950   -0.6510    3.5698 C.2       1 <0>         0.5037
     10 C9         -0.4884    0.0940    4.8232 C.2       1 <0>        -0.0847
     11 C10        -0.2790    1.4036    5.1799 C.2       1 <0>         0.0413
     12 N2         -0.5222    1.5065    6.4885 N.2       1 <0>        -0.4714
     13 C11        -0.8709    0.3380    6.9682 C.2       1 <0>         0.1934
     14 N3         -0.8650   -0.5686    5.9767 N.pl3     1 <0>        -0.3505
     15 C12        -1.1443   -1.9298    5.9073 C.ar      1 <0>        -0.0096
     16 C13        -1.5256   -2.6248    7.0468 C.ar      1 <0>        -0.0541
     17 C14        -1.8019   -3.9741    6.9753 C.ar      1 <0>        -0.1878
     18 C15        -1.7005   -4.6482    5.7609 C.ar      1 <0>         0.2421
     19 C16        -1.3219   -3.9700    4.6167 C.ar      1 <0>        -0.1783
     20 C17        -1.0397   -2.6006    4.6781 C.ar      1 <0>         0.2039
     21 N4         -0.6732   -1.9367    3.5498 N.2       1 <0>        -0.5464
     22 N5         -1.9821   -6.0161    5.6984 N.pl3     1 <0>        -0.6275
     23 C18        -1.7571   -6.7800    4.4610 C.3       1 <0>         0.0842
     24 C19        -0.9375   -8.0286    4.8059 C.3       1 <0>         0.0461
     25 O1         -1.5745   -8.7287    5.8773 O.3       1 <0>        -0.3782
     26 C20        -1.6554   -7.9855    7.0958 C.3       1 <0>         0.0453
     27 C21        -2.5066   -6.7358    6.8698 C.3       1 <0>         0.0844
     28 Cl1        -2.5018   -1.1881    1.2691 Cl        1 <0>        -0.0541
     29 H1          3.0599   -0.8907    2.0860 H         1 <0>         0.0741
     30 H2          3.3667    0.0699    0.6193 H         1 <0>         0.0734
     31 H3          2.2840    0.6985    1.8846 H         1 <0>         0.0667
     32 H4          2.6266   -1.6855   -0.8880 H         1 <0>         0.1330
     33 H5          0.7118   -2.7628   -1.9957 H         1 <0>         0.1345
     34 H6         -1.5486   -2.5438   -1.0464 H         1 <0>         0.1356
     35 H7          0.1072    0.9563    2.4053 H         1 <0>         0.4228
     36 H8          0.0269    2.2038    4.5222 H         1 <0>         0.1830
     37 H9         -1.1229    0.1355    7.9987 H         1 <0>         0.2138
     38 H10        -1.6057   -2.1079    7.9916 H         1 <0>         0.1321
     39 H11        -2.0978   -4.5103    7.8649 H         1 <0>         0.1349
     40 H12        -1.2438   -4.4966    3.6769 H         1 <0>         0.1392
     41 H13        -2.7149   -7.0762    4.0331 H         1 <0>         0.0743
     42 H14        -1.2088   -6.1670    3.7456 H         1 <0>         0.0953
     43 H15        -0.8771   -8.6774    3.9320 H         1 <0>         0.1070
     44 H16         0.0664   -7.7325    5.1105 H         1 <0>         0.0566
     45 H17        -2.1116   -8.6032    7.8694 H         1 <0>         0.1069
     46 H18        -0.6542   -7.6892    7.4087 H         1 <0>         0.0562
     47 H19        -2.4543   -6.0935    7.7489 H         1 <0>         0.0942
     48 H20        -3.5411   -7.0275    6.6886 H         1 <0>         0.0743
@<TRIPOS>BOND
     1    1    2 1
     2    1   29 1
     3    1   30 1
     4    1   31 1
     5    2    7 ar
     6    2    3 ar
     7    3    4 ar
     8    3   32 1
     9    4    5 ar
    10    4   33 1
    11    5    6 ar
    12    5   34 1
    13    6    7 ar
    14    6   28 1
    15    7    8 1
    16    8    9 1
    17    8   35 1
    18    9   21 2
    19    9   10 1
    20   10   14 1
    21   10   11 2
    22   11   12 1
    23   11   36 1
    24   12   13 2
    25   13   14 1
    26   13   37 1
    27   14   15 1
    28   15   20 ar
    29   15   16 ar
    30   16   17 ar
    31   16   38 1
    32   17   18 ar
    33   17   39 1
    34   18   19 ar
    35   18   22 1
    36   19   20 ar
    37   19   40 1
    38   20   21 1
    39   22   27 1
    40   22   23 1
    41   23   24 1
    42   23   41 1
    43   23   42 1
    44   24   25 1
    45   24   43 1
    46   24   44 1
    47   25   26 1
    48   26   27 1
    49   26   45 1
    50   26   46 1
    51   27   47 1
    52   27   48 1
@<TRIPOS>MOLECULE
CHEMBL522892
   51    55     0     0     0
SMALL
USER_CHARGES

@<TRIPOS>ATOM
      1 C1          0.8051    0.2324   -1.4077 C.3       1 <0>        -0.0469
      2 N1          0.6955   -1.2174   -1.1983 N.4       1 <0>        -0.3836
      3 C2         -0.7220   -1.5942   -1.1286 C.3       1 <0>        -0.0238
      4 C3         -0.8398   -3.1185   -1.0252 C.3       1 <0>         0.1007
      5 N2         -0.0339   -3.5719    0.1190 N.pl3     1 <0>        -0.6429
      6 C4          1.3580   -3.1056    0.2148 C.3       1 <0>         0.0996
      7 C5          1.3720   -1.5820    0.0529 C.3       1 <0>        -0.0227
      8 C6         -0.5760   -4.4220    1.0884 C.ar      1 <0>         0.2062
      9 C7         -1.9255   -4.7646    1.0342 C.ar      1 <0>        -0.1830
     10 C8         -2.4703   -5.5930    1.9732 C.ar      1 <0>        -0.0215
     11 C9         -1.6721   -6.1058    3.0008 C.ar      1 <0>         0.0284
     12 C10        -0.3102   -5.7623    3.0579 C.ar      1 <0>         0.0883
     13 C11         0.2327   -4.9242    2.0953 C.ar      1 <0>        -0.1814
     14 N3          0.2069   -6.4109    4.1649 N.pl3     1 <0>        -0.5840
     15 H1          1.1247   -6.3750    4.4767 H         1 <0>         0.4352
     16 C12        -0.8212   -7.1137    4.7396 C.2       1 <0>         0.3897
     17 N4         -1.9231   -6.9297    4.0499 N.2       1 <0>        -0.5167
     18 C13        -0.7066   -7.9483    5.9473 C.2       1 <0>        -0.2897
     19 C14        -1.7912   -8.7175    6.3752 C.2       1 <0>         0.3714
     20 C15        -1.6270   -9.5324    7.5845 C.ar      1 <0>        -0.1860
     21 C16        -0.3945   -9.5089    8.2620 C.ar      1 <0>         0.2412
     22 C17        -0.2309  -10.2780    9.4084 C.ar      1 <0>        -0.1738
     23 C18        -1.2716  -11.0554    9.8720 C.ar      1 <0>        -0.0195
     24 C19        -2.4877  -11.0809    9.2068 C.ar      1 <0>        -0.1807
     25 C20        -2.6747  -10.3254    8.0671 C.ar      1 <0>         0.1693
     26 F1         -3.8609  -10.3517    7.4210 F         1 <0>        -0.1207
     27 N5          0.6390   -8.7260    7.7867 N.am      1 <0>        -0.6329
     28 H2          1.4842   -8.7182    8.2626 H         1 <0>         0.4234
     29 C21         0.5046   -7.9802    6.6776 C.2       1 <0>         0.5800
     30 O1          1.4476   -7.3102    6.2941 O.2       1 <0>        -0.5593
     31 N6         -2.9786   -8.7110    5.6835 N.pl3     1 <0>        -0.8071
     32 H3          1.8569    0.5124   -1.4676 H         1 <0>         0.1245
     33 H4          0.3033    0.5044   -2.3363 H         1 <0>         0.1249
     34 H5          0.3366    0.7563   -0.5745 H         1 <0>         0.1214
     35 H6         -1.1777   -1.1342   -0.2517 H         1 <0>         0.1326
     36 H7         -1.2341   -1.2502   -2.0271 H         1 <0>         0.1407
     37 H8         -1.8827   -3.3957   -0.8715 H         1 <0>         0.1284
     38 H9         -0.4668   -3.5776   -1.9408 H         1 <0>         0.0875
     39 H10         1.7681   -3.3743    1.1883 H         1 <0>         0.1252
     40 H11         1.9529   -3.5634   -0.5755 H         1 <0>         0.0872
     41 H12         2.4029   -1.2289    0.0249 H         1 <0>         0.1401
     42 H13         0.8530   -1.1223    0.8940 H         1 <0>         0.1324
     43 H14        -2.5461   -4.3713    0.2427 H         1 <0>         0.1289
     44 H15        -3.5176   -5.8518    1.9226 H         1 <0>         0.1348
     45 H16         1.2794   -4.6608    2.1329 H         1 <0>         0.1222
     46 H17         0.7114  -10.2670    9.9359 H         1 <0>         0.1489
     47 H18        -1.1375  -11.6511   10.7629 H         1 <0>         0.1511
     48 H19        -3.2928  -11.6948    9.5826 H         1 <0>         0.1510
     49 H20        -2.9880   -8.4943    4.7380 H         1 <0>         0.4268
     50 H21        -3.8074   -8.9232    6.1406 H         1 <0>         0.4097
     51 H22         1.1321   -1.7012   -1.9686 H         1 <0>         0.4245
@<TRIPOS>BOND
     1    1    2 1
     2    1   32 1
     3    1   33 1
     4    1   34 1
     5    2    7 1
     6    2    3 1
     7    2   51 1
     8    3    4 1
     9    3   35 1
    10    3   36 1
    11    4    5 1
    12    4   37 1
    13    4   38 1
    14    5    6 1
    15    5    8 1
    16    6    7 1
    17    6   39 1
    18    6   40 1
    19    7   41 1
    20    7   42 1
    21    8   13 ar
    22    8    9 ar
    23    9   10 ar
    24    9   43 1
    25   10   11 ar
    26   10   44 1
    27   11   17 1
    28   11   12 ar
    29   12   13 ar
    30   12   14 1
    31   13   45 1
    32   14   15 1
    33   14   16 1
    34   16   17 2
    35   16   18 1
    36   18   29 1
    37   18   19 2
    38   19   20 1
    39   19   31 1
    40   20   25 ar
    41   20   21 ar
    42   21   22 ar
    43   21   27 1
    44   22   23 ar
    45   22   46 1
    46   23   24 ar
    47   23   47 1
    48   24   25 ar
    49   24   48 1
    50   25   26 1
    51   27   28 1
    52   27   29 am
    53   29   30 2
    54   31   49 1
    55   31   50 1
@<TRIPOS>MOLECULE
CHEMBL522892__1
   50    54     0     0     0
SMALL
USER_CHARGES

@<TRIPOS>ATOM
      1 C1          0.8730    0.3059   -1.4180 C.3       1 <0>         0.0243
      2 N1          0.7577   -1.1443   -1.2136 N.3       1 <0>        -0.5426
      3 C2         -0.6486   -1.5684   -1.2321 C.3       1 <0>         0.0377
      4 C3         -0.7177   -3.0988   -1.1981 C.3       1 <0>         0.1263
      5 N2          0.0607   -3.5761   -0.0450 N.pl3     1 <0>        -0.6287
      6 C4          1.4376   -3.0848    0.1165 C.3       1 <0>         0.1258
      7 C5          1.4218   -1.5549    0.0307 C.3       1 <0>         0.0388
      8 C6         -0.4939   -4.4730    0.8738 C.ar      1 <0>         0.2365
      9 C7         -1.8329   -4.8416    0.7616 C.ar      1 <0>        -0.1892
     10 C8         -2.3899   -5.7158    1.6508 C.ar      1 <0>        -0.0222
     11 C9         -1.6146   -6.2498    2.6851 C.ar      1 <0>         0.0050
     12 C10        -0.2632   -5.8802    2.8006 C.ar      1 <0>         0.1008
     13 C11         0.2922   -4.9955    1.8882 C.ar      1 <0>        -0.2075
     14 N3          0.2314   -6.5589    3.8998 N.pl3     1 <0>        -0.5864
     15 H1          1.1375   -6.5154    4.2434 H         1 <0>         0.4318
     16 C12        -0.7992   -7.3041    4.4133 C.2       1 <0>         0.3648
     17 N4         -1.8816   -7.1175    3.6942 N.2       1 <0>        -0.5107
     18 C13        -0.7058   -8.1807    5.5928 C.2       1 <0>        -0.2737
     19 C14        -1.7866   -8.9879    5.9555 C.2       1 <0>         0.3579
     20 C15        -1.6442   -9.8438    7.1389 C.ar      1 <0>        -0.1804
     21 C16        -0.4354   -9.8200    7.8579 C.ar      1 <0>         0.2398
     22 C17        -0.2926  -10.6278    8.9801 C.ar      1 <0>        -0.1747
     23 C18        -1.3304  -11.4436    9.3796 C.ar      1 <0>        -0.0248
     24 C19        -2.5232  -11.4696    8.6734 C.ar      1 <0>        -0.1838
     25 C20        -2.6894  -10.6760    7.5566 C.ar      1 <0>         0.1678
     26 F1         -3.8529  -10.7029    6.8704 F         1 <0>        -0.1214
     27 N5          0.5956   -8.9983    7.4466 N.am      1 <0>        -0.6338
     28 H2          1.4243   -8.9907    7.9506 H         1 <0>         0.4215
     29 C21         0.4811   -8.2146    6.3618 C.2       1 <0>         0.5763
     30 O1          1.4212   -7.5111    6.0350 O.2       1 <0>        -0.5540
     31 N6         -2.9506   -8.9803    5.2249 N.pl3     1 <0>        -0.8096
     32 H3          1.9258    0.5820   -1.4762 H         1 <0>         0.0703
     33 H4          0.3729    0.5828   -2.3461 H         1 <0>         0.0703
     34 H5          0.4058    0.8287   -0.5835 H         1 <0>         0.0257
     35 H6         -1.1627   -1.1616   -0.3612 H         1 <0>         0.0389
     36 H7         -1.1269   -1.2028   -2.1408 H         1 <0>         0.0861
     37 H8         -1.7554   -3.4163   -1.0960 H         1 <0>         0.0886
     38 H9         -0.2963   -3.5049   -2.1177 H         1 <0>         0.0708
     39 H10         1.8249   -3.3932    1.0876 H         1 <0>         0.0860
     40 H11         2.0662   -3.4896   -0.6768 H         1 <0>         0.0703
     41 H12         2.4451   -1.1796    0.0378 H         1 <0>         0.0855
     42 H13         0.8789   -1.1484    0.8840 H         1 <0>         0.0386
     43 H14        -2.4358   -4.4320   -0.0353 H         1 <0>         0.1294
     44 H15        -3.4289   -5.9944    1.5554 H         1 <0>         0.1285
     45 H16         1.3310   -4.7118    1.9707 H         1 <0>         0.1216
     46 H17         0.6315  -10.6169    9.5390 H         1 <0>         0.1468
     47 H18        -1.2125  -12.0692   10.2520 H         1 <0>         0.1482
     48 H19        -3.3264  -12.1138    8.9991 H         1 <0>         0.1484
     49 H20        -2.9336   -8.7292    4.2881 H         1 <0>         0.4276
     50 H21        -3.7891   -9.2261    5.6460 H         1 <0>         0.4068
@<TRIPOS>BOND
     1    1    2 1
     2    1   32 1
     3    1   33 1
     4    1   34 1
     5    2    7 1
     6    2    3 1
     7    3    4 1
     8    3   35 1
     9    3   36 1
    10    4    5 1
    11    4   37 1
    12    4   38 1
    13    5    6 1
    14    5    8 1
    15    6    7 1
    16    6   39 1
    17    6   40 1
    18    7   41 1
    19    7   42 1
    20    8   13 ar
    21    8    9 ar
    22    9   10 ar
    23    9   43 1
    24   10   11 ar
    25   10   44 1
    26   11   17 1
    27   11   12 ar
    28   12   13 ar
    29   12   14 1
    30   13   45 1
    31   14   15 1
    32   14   16 1
    33   16   17 2
    34   16   18 1
    35   18   29 1
    36   18   19 2
    37   19   20 1
    38   19   31 1
    39   20   25 ar
    40   20   21 ar
    41   21   22 ar
    42   21   27 1
    43   22   23 ar
    44   22   46 1
    45   23   24 ar
    46   23   47 1
    47   24   25 ar
    48   24   48 1
    49   25   26 1
    50   27   28 1
    51   27   29 am
    52   29   30 2
    53   31   49 1
    54   31   50 1
@<TRIPOS>MOLECULE
CHEMBL214617
   62    65     0     0     0
SMALL
USER_CHARGES

@<TRIPOS>ATOM
      1 C1          3.3345    6.6646    1.8661 C.3       1 <0>        -0.1165
      2 C2          2.6197    7.9870    1.9736 C.ar      1 <0>        -0.0851
      3 C3          2.9338    9.0152    1.1059 C.ar      1 <0>        -0.1055
      4 C4          2.2789   10.2289    1.2033 C.ar      1 <0>        -0.1069
      5 C5          1.3074   10.4185    2.1692 C.ar      1 <0>        -0.1064
      6 C6          0.9886    9.3947    3.0406 C.ar      1 <0>        -0.0242
      7 C7          1.6411    8.1712    2.9409 C.ar      1 <0>         0.1458
      8 N1          1.3165    7.1300    3.8170 N.am      1 <0>        -0.6733
      9 C8          1.3158    7.3443    5.1476 C.2       1 <0>         0.6131
     10 O1          1.4983    8.4664    5.5836 O.2       1 <0>        -0.4898
     11 C9          1.0959    6.2292    6.0677 C.2       1 <0>        -0.3087
     12 C10         1.0491    6.2203    7.4549 C.2       1 <0>         0.1719
     13 N2          0.8327    5.0605    8.0220 N.2       1 <0>        -0.5178
     14 C11         0.6688    3.9622    7.3061 C.2       1 <0>         0.3110
     15 S1          0.8054    4.5022    5.7181 S.3       1 <0>         0.1350
     16 N3          0.4349    2.6772    7.7544 N.pl3     1 <0>        -0.5902
     17 C12         0.2381    2.4392    9.1083 C.ar      1 <0>         0.4408
     18 C13        -0.1092    1.1694    9.5585 C.ar      1 <0>        -0.3378
     19 C14        -0.2952    0.9826   10.9250 C.ar      1 <0>         0.4640
     20 N4         -0.1353    2.0185   11.7465 N.ar      1 <0>        -0.5937
     21 C15         0.1941    3.2060   11.2808 C.ar      1 <0>         0.3946
     22 N5          0.3843    3.4216    9.9951 N.ar      1 <0>        -0.5445
     23 C16         0.3644    4.3495   12.2475 C.3       1 <0>        -0.0841
     24 N6         -0.6424   -0.2634   11.4237 N.pl3     1 <0>        -0.7103
     25 C17        -0.8160   -1.3956   10.5103 C.3       1 <0>         0.1266
     26 C18        -1.1949   -2.6432   11.3107 C.3       1 <0>        -0.1292
     27 C19        -1.3762   -3.8256   10.3568 C.3       1 <0>         0.0592
     28 N7         -1.7400   -5.0235   11.1253 N.3       1 <0>        -0.5373
     29 C20        -0.6322   -5.4494   11.9929 C.3       1 <0>         0.0134
     30 C21        -1.0737   -6.6615   12.8173 C.3       1 <0>         0.0622
     31 O2         -1.5008   -7.7023   11.9343 O.3       1 <0>        -0.3849
     32 C22        -2.5790   -7.3221   11.0752 C.3       1 <0>         0.0624
     33 C23        -2.1528   -6.1166   10.2331 C.3       1 <0>         0.0174
     34 Cl1        -0.2306    9.6332    4.2532 Cl        1 <0>        -0.0432
     35 H1          2.7923    6.0132    1.1807 H         1 <0>         0.0754
     36 H2          4.3447    6.8271    1.4904 H         1 <0>         0.0754
     37 H3          3.3835    6.1971    2.8496 H         1 <0>         0.0675
     38 H4          3.6922    8.8707    0.3506 H         1 <0>         0.1337
     39 H5          2.5268   11.0309    0.5238 H         1 <0>         0.1351
     40 H6          0.7977   11.3678    2.2426 H         1 <0>         0.1371
     41 H7          1.0918    6.2537    3.4667 H         1 <0>         0.4085
     42 H8          1.1842    7.1213    8.0348 H         1 <0>         0.1886
     43 H9          0.4081    1.9408    7.1236 H         1 <0>         0.4389
     44 H10        -0.2315    0.3501    8.8655 H         1 <0>         0.1405
     45 H11         1.4004    4.3897   12.5838 H         1 <0>         0.0871
     46 H12         0.1067    5.2855   11.7520 H         1 <0>         0.0897
     47 H13        -0.2907    4.2003   13.1058 H         1 <0>         0.0853
     48 H14        -0.7703   -0.3857   12.3774 H         1 <0>         0.4106
     49 H15        -1.6073   -1.1680    9.7959 H         1 <0>         0.0684
     50 H16         0.1159   -1.5766    9.9747 H         1 <0>         0.0660
     51 H17        -0.4036   -2.8708   12.0250 H         1 <0>         0.0730
     52 H18        -2.1268   -2.4622   11.8463 H         1 <0>         0.0830
     53 H19        -2.1675   -3.5981    9.6424 H         1 <0>         0.0810
     54 H20        -0.4443   -4.0066    9.8212 H         1 <0>         0.0399
     55 H21         0.2272   -5.7199   11.3794 H         1 <0>         0.0444
     56 H22        -0.3598   -4.6335   12.6624 H         1 <0>         0.0889
     57 H23        -0.2375   -7.0158   13.4200 H         1 <0>         0.0993
     58 H24        -1.8988   -6.3766   13.4702 H         1 <0>         0.0609
     59 H25        -2.8315   -8.1542   10.4180 H         1 <0>         0.0999
     60 H26        -3.4479   -7.0564   11.6774 H         1 <0>         0.0611
     61 H27        -2.9904   -5.7878    9.6181 H         1 <0>         0.0880
     62 H28        -1.3177   -6.3979    9.5915 H         1 <0>         0.0446
@<TRIPOS>BOND
     1    1    2 1
     2    1   35 1
     3    1   36 1
     4    1   37 1
     5    2    7 ar
     6    2    3 ar
     7    3    4 ar
     8    3   38 1
     9    4    5 ar
    10    4   39 1
    11    5    6 ar
    12    5   40 1
    13    6    7 ar
    14    6   34 1
    15    7    8 1
    16    8    9 am
    17    8   41 1
    18    9   10 2
    19    9   11 1
    20   11   15 1
    21   11   12 2
    22   12   13 1
    23   12   42 1
    24   13   14 2
    25   14   15 1
    26   14   16 1
    27   16   17 1
    28   16   43 1
    29   17   22 ar
    30   17   18 ar
    31   18   19 ar
    32   18   44 1
    33   19   20 ar
    34   19   24 1
    35   20   21 ar
    36   21   22 ar
    37   21   23 1
    38   23   45 1
    39   23   46 1
    40   23   47 1
    41   24   25 1
    42   24   48 1
    43   25   26 1
    44   25   49 1
    45   25   50 1
    46   26   27 1
    47   26   51 1
    48   26   52 1
    49   27   28 1
    50   27   53 1
    51   27   54 1
    52   28   33 1
    53   28   29 1
    54   29   30 1
    55   29   55 1
    56   29   56 1
    57   30   31 1
    58   30   57 1
    59   30   58 1
    60   31   32 1
    61   32   33 1
    62   32   59 1
    63   32   60 1
    64   33   61 1
    65   33   62 1
@<TRIPOS>MOLECULE
CHEMBL214617__1
   63    66     0     0     0
SMALL
USER_CHARGES

@<TRIPOS>ATOM
      1 C1         -1.9299    1.6498    0.2188 C.3       1 <0>        -0.1171
      2 C2         -1.5028    0.2172    0.0286 C.ar      1 <0>        -0.0811
      3 C3         -1.6830   -0.4016   -1.1934 C.ar      1 <0>        -0.1033
      4 C4         -1.2917   -1.7159   -1.3694 C.ar      1 <0>        -0.0988
      5 C5         -0.7187   -2.4162   -0.3233 C.ar      1 <0>        -0.1045
      6 C6         -0.5359   -1.8036    0.9017 C.ar      1 <0>        -0.0219
      7 C7         -0.9228   -0.4803    1.0795 C.ar      1 <0>         0.1345
      8 N1         -0.7332    0.1455    2.3163 N.am      1 <0>        -0.6658
      9 C8         -1.1873   -0.4378    3.4433 C.2       1 <0>         0.6013
     10 O1         -1.6719   -1.5539    3.3984 O.2       1 <0>        -0.4717
     11 C9         -1.0979    0.2697    4.7199 C.2       1 <0>        -0.2621
     12 C10        -1.4917   -0.1356    5.9877 C.2       1 <0>         0.1506
     13 N2         -1.2869    0.7163    6.9603 N.2       1 <0>        -0.5482
     14 C11        -0.7347    1.8961    6.7394 C.2       1 <0>         0.2480
     15 S1         -0.4447    1.8919    5.0817 S.3       1 <0>         0.2467
     16 N3         -0.4563    2.8935    7.6529 N.pl3     1 <0>        -0.5858
     17 C12        -0.6782    2.6770    9.0065 C.ar      1 <0>         0.4585
     18 C13        -1.0402    1.4160    9.4695 C.ar      1 <0>        -0.2914
     19 C14        -1.2512    1.2508   10.8352 C.ar      1 <0>         0.4970
     20 N4         -1.1002    2.2983   11.6438 N.ar      1 <0>        -0.5331
     21 C15        -0.7562    3.4768   11.1661 C.ar      1 <0>         0.4548
     22 N5         -0.5422    3.6720    9.8809 N.ar      1 <0>        -0.5647
     23 C16        -0.5967    4.6339   12.1184 C.3       1 <0>        -0.1262
     24 N6         -1.6138    0.0143   11.3464 N.pl3     1 <0>        -0.6510
     25 C17        -1.7776   -1.1306   10.4472 C.3       1 <0>         0.1040
     26 C18        -2.1772   -2.3640   11.2595 C.3       1 <0>        -0.1333
     27 C19        -2.3482   -3.5597   10.3204 C.3       1 <0>         0.0587
     28 N7         -2.7318   -4.7440   11.1003 N.3       1 <0>        -0.5368
     29 C20        -1.6418   -5.1624   11.9936 C.3       1 <0>         0.0134
     30 C21        -2.1043   -6.3596   12.8283 C.3       1 <0>         0.0614
     31 O2         -2.5214   -7.4114   11.9537 O.3       1 <0>        -0.3823
     32 C22        -3.5823   -7.0387   11.0700 C.3       1 <0>         0.0614
     33 C23        -3.1348   -5.8483   10.2175 C.3       1 <0>         0.0176
     34 Cl1         0.1829   -2.6830    2.2146 Cl        1 <0>        -0.0458
     35 H1         -1.1033    2.3125   -0.0379 H         1 <0>         0.0773
     36 H2         -2.7813    1.8640   -0.4273 H         1 <0>         0.0787
     37 H3         -2.2139    1.8093    1.2590 H         1 <0>         0.0640
     38 H4         -2.1305    0.1420   -2.0124 H         1 <0>         0.1374
     39 H5         -1.4342   -2.1970   -2.3257 H         1 <0>         0.1392
     40 H6         -0.4141   -3.4427   -0.4640 H         1 <0>         0.1403
     41 H7         -0.2750    0.9991    2.3628 H         1 <0>         0.4082
     42 H8         -1.9429   -1.1012    6.1621 H         1 <0>         0.2029
     43 H9         -0.1058    3.7454    7.3490 H         1 <0>         0.4464
     44 H10        -1.1548    0.5870    8.7869 H         1 <0>         0.2224
     45 H11         0.4335    4.6739   12.4723 H         1 <0>         0.1252
     46 H12        -0.8406    5.5637   11.6044 H         1 <0>         0.1079
     47 H13        -1.2676    4.5011   12.9671 H         1 <0>         0.1284
     48 H14        -1.7592   -0.0928   12.2994 H         1 <0>         0.4274
     49 H15        -2.5549   -0.9098    9.7157 H         1 <0>         0.0929
     50 H16        -0.8374   -1.3245    9.9309 H         1 <0>         0.0871
     51 H17        -1.3998   -2.5848   11.9910 H         1 <0>         0.0786
     52 H18        -3.1174   -2.1701   11.7757 H         1 <0>         0.0892
     53 H19        -3.1255   -3.3389    9.5889 H         1 <0>         0.0840
     54 H20        -1.4079   -3.7536    9.8041 H         1 <0>         0.0422
     55 H21        -0.7732   -5.4466   11.3996 H         1 <0>         0.0456
     56 H22        -1.3768   -4.3378   12.6555 H         1 <0>         0.0863
     57 H23        -1.2807   -6.7091   13.4509 H         1 <0>         0.1005
     58 H24        -2.9391   -6.0606   13.4621 H         1 <0>         0.0614
     59 H25        -3.8278   -7.8793   10.4210 H         1 <0>         0.1025
     60 H26        -4.4602   -6.7595   11.6527 H         1 <0>         0.0621
     61 H27        -3.9598   -5.5246    9.5829 H         1 <0>         0.0897
     62 H28        -2.2901   -6.1435    9.5951 H         1 <0>         0.0468
     63 H29        -0.2862    4.5533    9.5669 H         1 <0>         0.4425
@<TRIPOS>BOND
     1    1    2 1
     2    1   35 1
     3    1   36 1
     4    1   37 1
     5    2    7 ar
     6    2    3 ar
     7    3    4 ar
     8    3   38 1
     9    4    5 ar
    10    4   39 1
    11    5    6 ar
    12    5   40 1
    13    6    7 ar
    14    6   34 1
    15    7    8 1
    16    8    9 am
    17    8   41 1
    18    9   10 2
    19    9   11 1
    20   11   15 1
    21   11   12 2
    22   12   13 1
    23   12   42 1
    24   13   14 2
    25   14   15 1
    26   14   16 1
    27   16   17 1
    28   16   43 1
    29   17   22 ar
    30   17   18 ar
    31   18   19 ar
    32   18   44 1
    33   19   20 ar
    34   19   24 1
    35   20   21 ar
    36   21   22 ar
    37   21   23 1
    38   22   63 1
    39   23   45 1
    40   23   46 1
    41   23   47 1
    42   24   25 1
    43   24   48 1
    44   25   26 1
    45   25   49 1
    46   25   50 1
    47   26   27 1
    48   26   51 1
    49   26   52 1
    50   27   28 1
    51   27   53 1
    52   27   54 1
    53   28   33 1
    54   28   29 1
    55   29   30 1
    56   29   55 1
    57   29   56 1
    58   30   31 1
    59   30   57 1
    60   30   58 1
    61   31   32 1
    62   32   33 1
    63   32   59 1
    64   32   60 1
    65   33   61 1
    66   33   62 1
@<TRIPOS>MOLECULE
CHEMBL214617__2
   63    66     0     0     0
SMALL
USER_CHARGES

@<TRIPOS>ATOM
      1 C1          3.3345    6.6646    1.8661 C.3       1 <0>        -0.1161
      2 C2          2.6197    7.9870    1.9736 C.ar      1 <0>        -0.0848
      3 C3          2.9338    9.0152    1.1059 C.ar      1 <0>        -0.1048
      4 C4          2.2789   10.2289    1.2033 C.ar      1 <0>        -0.1045
      5 C5          1.3074   10.4185    2.1692 C.ar      1 <0>        -0.1055
      6 C6          0.9886    9.3947    3.0406 C.ar      1 <0>        -0.0237
      7 C7          1.6411    8.1712    2.9409 C.ar      1 <0>         0.1426
      8 N1          1.3165    7.1300    3.8170 N.am      1 <0>        -0.6716
      9 C8          1.3158    7.3443    5.1476 C.2       1 <0>         0.6097
     10 O1          1.4983    8.4664    5.5836 O.2       1 <0>        -0.4850
     11 C9          1.0959    6.2292    6.0677 C.2       1 <0>        -0.2963
     12 C10         1.0491    6.2203    7.4549 C.2       1 <0>         0.1662
     13 N2          0.8327    5.0605    8.0220 N.2       1 <0>        -0.5143
     14 C11         0.6688    3.9622    7.3061 C.2       1 <0>         0.2974
     15 S1          0.8054    4.5022    5.7181 S.3       1 <0>         0.1438
     16 N3          0.4349    2.6772    7.7544 N.pl3     1 <0>        -0.5908
     17 C12         0.2381    2.4392    9.1083 C.ar      1 <0>         0.4477
     18 C13        -0.1092    1.1694    9.5585 C.ar      1 <0>        -0.3410
     19 C14        -0.2952    0.9826   10.9250 C.ar      1 <0>         0.4605
     20 N4         -0.1353    2.0185   11.7465 N.ar      1 <0>        -0.5922
     21 C15         0.1941    3.2060   11.2808 C.ar      1 <0>         0.4015
     22 N5          0.3843    3.4216    9.9951 N.ar      1 <0>        -0.5374
     23 C16         0.3644    4.3495   12.2475 C.3       1 <0>        -0.0882
     24 N6         -0.6424   -0.2634   11.4237 N.pl3     1 <0>        -0.7196
     25 C17        -0.8160   -1.3956   10.5103 C.3       1 <0>         0.1331
     26 C18        -1.1949   -2.6432   11.3107 C.3       1 <0>        -0.1639
     27 C19        -1.3762   -3.8256   10.3568 C.3       1 <0>        -0.0046
     28 N7         -1.7400   -5.0235   11.1253 N.4       1 <0>        -0.3852
     29 C20        -0.6231   -5.4008   12.0024 C.3       1 <0>        -0.0492
     30 C21        -1.0046   -6.6489   12.8022 C.3       1 <0>         0.0359
     31 O2         -1.3415   -7.7041   11.8972 O.3       1 <0>        -0.3558
     32 C22        -2.4098   -7.3754   11.0047 C.3       1 <0>         0.0352
     33 C23        -2.0309   -6.1286   10.2016 C.3       1 <0>        -0.0433
     34 Cl1        -0.2306    9.6332    4.2532 Cl        1 <0>        -0.0440
     35 H1          2.7923    6.0132    1.1807 H         1 <0>         0.0753
     36 H2          4.3447    6.8271    1.4904 H         1 <0>         0.0762
     37 H3          3.3835    6.1971    2.8496 H         1 <0>         0.0662
     38 H4          3.6922    8.8707    0.3506 H         1 <0>         0.1348
     39 H5          2.5268   11.0309    0.5238 H         1 <0>         0.1365
     40 H6          0.7977   11.3678    2.2426 H         1 <0>         0.1382
     41 H7          1.0918    6.2537    3.4667 H         1 <0>         0.4079
     42 H8          1.1842    7.1213    8.0348 H         1 <0>         0.1908
     43 H9          0.4081    1.9408    7.1236 H         1 <0>         0.4383
     44 H10        -0.2315    0.3501    8.8655 H         1 <0>         0.1386
     45 H11         1.4004    4.3897   12.5838 H         1 <0>         0.0907
     46 H12         0.1067    5.2855   11.7520 H         1 <0>         0.0933
     47 H13        -0.2907    4.2003   13.1058 H         1 <0>         0.0872
     48 H14        -0.7703   -0.3857   12.3774 H         1 <0>         0.4112
     49 H15        -1.6073   -1.1680    9.7959 H         1 <0>         0.0762
     50 H16         0.1159   -1.5766    9.9747 H         1 <0>         0.0760
     51 H17        -0.4036   -2.8708   12.0250 H         1 <0>         0.0972
     52 H18        -2.1268   -2.4622   11.8463 H         1 <0>         0.0981
     53 H19        -2.1675   -3.5981    9.6424 H         1 <0>         0.1379
     54 H20        -0.4443   -4.0066    9.8212 H         1 <0>         0.1358
     55 H21         0.2589   -5.6119   11.3977 H         1 <0>         0.1406
     56 H22        -0.4065   -4.5816   12.6881 H         1 <0>         0.1432
     57 H23        -0.1620   -6.9559   13.4217 H         1 <0>         0.1428
     58 H24        -1.8621   -6.4263   13.4372 H         1 <0>         0.0819
     59 H25        -2.5842   -8.2082   10.3234 H         1 <0>         0.1432
     60 H26        -3.3154   -7.1777   11.5782 H         1 <0>         0.0819
     61 H27        -2.8594   -5.8498    9.5505 H         1 <0>         0.1440
     62 H28        -1.1484   -6.3395    9.5976 H         1 <0>         0.1401
     63 H29        -2.5567   -4.8290   11.6850 H         1 <0>         0.4242
@<TRIPOS>BOND
     1    1    2 1
     2    1   35 1
     3    1   36 1
     4    1   37 1
     5    2    7 ar
     6    2    3 ar
     7    3    4 ar
     8    3   38 1
     9    4    5 ar
    10    4   39 1
    11    5    6 ar
    12    5   40 1
    13    6    7 ar
    14    6   34 1
    15    7    8 1
    16    8    9 am
    17    8   41 1
    18    9   10 2
    19    9   11 1
    20   11   15 1
    21   11   12 2
    22   12   13 1
    23   12   42 1
    24   13   14 2
    25   14   15 1
    26   14   16 1
    27   16   17 1
    28   16   43 1
    29   17   22 ar
    30   17   18 ar
    31   18   19 ar
    32   18   44 1
    33   19   20 ar
    34   19   24 1
    35   20   21 ar
    36   21   22 ar
    37   21   23 1
    38   23   45 1
    39   23   46 1
    40   23   47 1
    41   24   25 1
    42   24   48 1
    43   25   26 1
    44   25   49 1
    45   25   50 1
    46   26   27 1
    47   26   51 1
    48   26   52 1
    49   27   28 1
    50   27   53 1
    51   27   54 1
    52   28   33 1
    53   28   29 1
    54   28   63 1
    55   29   30 1
    56   29   55 1
    57   29   56 1
    58   30   31 1
    59   30   57 1
    60   30   58 1
    61   31   32 1
    62   32   33 1
    63   32   59 1
    64   32   60 1
    65   33   61 1
    66   33   62 1
@<TRIPOS>MOLECULE
CHEMBL217092
   71    76     0     0     0
SMALL
USER_CHARGES

@<TRIPOS>ATOM
      1 C1         -3.3753    3.0879    1.9544 C.3       1 <0>        -0.0458
      2 N1         -2.5028    1.9500    1.6349 N.4       1 <0>        -0.3883
      3 C2         -3.3246    0.8019    1.2300 C.3       1 <0>        -0.0023
      4 C3         -2.4154   -0.3779    0.8790 C.3       1 <0>         0.0259
      5 N2         -1.5974   -0.7273    2.0490 N.3       1 <0>        -0.5335
      6 C4         -0.7875    0.4205    2.4812 C.3       1 <0>         0.0179
      7 C5         -1.7101    1.5936    2.8190 C.3       1 <0>        -0.0015
      8 C6         -0.7499   -1.8941    1.7693 C.3       1 <0>         0.0564
      9 C7         -0.1052   -2.3795    3.0691 C.3       1 <0>         0.0565
     10 O1         -1.1202   -2.8535    3.9563 O.3       1 <0>        -0.2952
     11 C8         -0.7135   -3.3232    5.1637 C.ar      1 <0>         0.2144
     12 C9          0.6301   -3.3184    5.4792 C.ar      1 <0>        -0.2565
     13 C10         1.0521   -3.8009    6.7219 C.ar      1 <0>         0.2616
     14 C11         0.0926   -4.2898    7.6432 C.ar      1 <0>        -0.2437
     15 C12        -1.2701   -4.2855    7.3014 C.ar      1 <0>         0.2296
     16 C13        -1.6596   -3.7993    6.0717 C.ar      1 <0>        -0.2670
     17 O2         -2.1962   -4.7521    8.1769 O.3       1 <0>        -0.3107
     18 C14        -3.5676   -4.6414    7.7908 C.3       1 <0>         0.0855
     19 C15        -4.0829   -3.2386    8.1266 C.3       1 <0>        -0.1817
     20 C16        -5.5723   -3.1545    7.7824 C.3       1 <0>         0.0659
     21 O3         -6.2839   -4.1628    8.5029 O.3       1 <0>        -0.3758
     22 C17        -5.8772   -5.4975    8.1941 C.3       1 <0>         0.0653
     23 C18        -4.4001   -5.6756    8.5549 C.3       1 <0>        -0.1569
     24 C19         0.5494   -4.7703    8.8910 C.ar      1 <0>         0.4983
     25 N3          1.8539   -4.7396    9.1369 N.ar      1 <0>        -0.5853
     26 C20         2.7144   -4.2739    8.2462 C.ar      1 <0>         0.3718
     27 N4          2.3482   -3.8154    7.0727 N.ar      1 <0>        -0.5641
     28 N5         -0.3365   -5.2581    9.8291 N.pl3     1 <0>        -0.6284
     29 C21         0.1202   -5.6162   11.1042 C.ar      1 <0>         0.1650
     30 C22         1.1009   -6.5906   11.2437 C.ar      1 <0>        -0.0112
     31 C23         1.5513   -6.9436   12.5021 C.ar      1 <0>        -0.0868
     32 C24         1.0290   -6.3291   13.6254 C.ar      1 <0>        -0.0867
     33 C25         0.0503   -5.3558   13.4957 C.ar      1 <0>         0.0506
     34 C26        -0.4032   -4.9928   12.2318 C.ar      1 <0>         0.0341
     35 O4         -1.3527   -4.0207   12.3704 O.3       1 <0>        -0.3001
     36 C27        -1.7631   -4.0788   13.7493 C.3       1 <0>         0.2118
     37 O5         -0.6147   -4.6125   14.4283 O.3       1 <0>        -0.2999
     38 Cl1         1.7603   -7.3655    9.8372 Cl        1 <0>        -0.0316
     39 H1         -2.7656    3.9404    2.2537 H         1 <0>         0.1244
     40 H2         -3.9636    3.3525    1.0758 H         1 <0>         0.1247
     41 H3         -4.0440    2.8150    2.7708 H         1 <0>         0.1230
     42 H4         -3.9848    0.5203    2.0503 H         1 <0>         0.1379
     43 H5         -3.9220    1.0718    0.3592 H         1 <0>         0.1364
     44 H6         -3.0255   -1.2346    0.5928 H         1 <0>         0.1249
     45 H7         -1.7645   -0.1012    0.0496 H         1 <0>         0.0615
     46 H8         -0.2099    0.1462    3.3639 H         1 <0>         0.1234
     47 H9         -0.1097    0.7103    1.6783 H         1 <0>         0.0629
     48 H10        -1.1106    2.4506    3.1262 H         1 <0>         0.1362
     49 H11        -2.3785    1.3080    3.6312 H         1 <0>         0.1379
     50 H12        -1.3592   -2.6925    1.3456 H         1 <0>         0.1029
     51 H13         0.0289   -1.6157    1.0593 H         1 <0>         0.0724
     52 H14         0.5917   -3.1883    2.8491 H         1 <0>         0.0824
     53 H15         0.4315   -1.5550    3.5384 H         1 <0>         0.0688
     54 H16         1.3526   -2.9438    4.7692 H         1 <0>         0.1425
     55 H17        -2.7066   -3.7907    5.8071 H         1 <0>         0.1437
     56 H18        -3.6602   -4.8185    6.7193 H         1 <0>         0.0863
     57 H19        -3.9433   -3.0441    9.1900 H         1 <0>         0.0883
     58 H20        -3.5323   -2.4994    7.5448 H         1 <0>         0.0815
     59 H21        -5.9544   -2.1719    8.0591 H         1 <0>         0.1017
     60 H22        -5.7073   -3.3090    6.7119 H         1 <0>         0.0534
     61 H23        -6.4790   -6.2027    8.7674 H         1 <0>         0.1088
     62 H24        -6.0162   -5.6826    7.1290 H         1 <0>         0.0569
     63 H25        -4.0763   -6.6793    8.2793 H         1 <0>         0.0892
     64 H26        -4.2669   -5.5304    9.6269 H         1 <0>         0.0877
     65 H27         3.7650   -4.2712    8.4964 H         1 <0>         0.1982
     66 H28        -1.2756   -5.3533    9.6058 H         1 <0>         0.4299
     67 H29         2.3131   -7.7018   12.6083 H         1 <0>         0.1560
     68 H30         1.3843   -6.6083   14.6063 H         1 <0>         0.1514
     69 H31        -2.0039   -3.0823   14.1196 H         1 <0>         0.1364
     70 H32        -2.6148   -4.7487   13.8677 H         1 <0>         0.0884
     71 H33        -1.8836    2.2030    0.8795 H         1 <0>         0.4225
@<TRIPOS>BOND
     1    1    2 1
     2    1   39 1
     3    1   40 1
     4    1   41 1
     5    2    7 1
     6    2    3 1
     7    2   71 1
     8    3    4 1
     9    3   42 1
    10    3   43 1
    11    4    5 1
    12    4   44 1
    13    4   45 1
    14    5    6 1
    15    5    8 1
    16    6    7 1
    17    6   46 1
    18    6   47 1
    19    7   48 1
    20    7   49 1
    21    8    9 1
    22    8   50 1
    23    8   51 1
    24    9   10 1
    25    9   52 1
    26    9   53 1
    27   10   11 1
    28   11   16 ar
    29   11   12 ar
    30   12   13 ar
    31   12   54 1
    32   13   27 ar
    33   13   14 ar
    34   14   15 ar
    35   14   24 ar
    36   15   16 ar
    37   15   17 1
    38   16   55 1
    39   17   18 1
    40   18   23 1
    41   18   19 1
    42   18   56 1
    43   19   20 1
    44   19   57 1
    45   19   58 1
    46   20   21 1
    47   20   59 1
    48   20   60 1
    49   21   22 1
    50   22   23 1
    51   22   61 1
    52   22   62 1
    53   23   63 1
    54   23   64 1
    55   24   25 ar
    56   24   28 1
    57   25   26 ar
    58   26   27 ar
    59   26   65 1
    60   28   29 1
    61   28   66 1
    62   29   34 ar
    63   29   30 ar
    64   30   31 ar
    65   30   38 1
    66   31   32 ar
    67   31   67 1
    68   32   33 ar
    69   32   68 1
    70   33   37 1
    71   33   34 ar
    72   34   35 1
    73   35   36 1
    74   36   37 1
    75   36   69 1
    76   36   70 1
@<TRIPOS>MOLECULE
CHEMBL271375
   48    50     0     0     0
SMALL
USER_CHARGES

@<TRIPOS>ATOM
      1 C1         -0.3854    1.4779   -0.0866 C.3       1 <0>        -0.1303
      2 C2         -0.2425   -0.0196    0.0027 C.ar      1 <0>        -0.0264
      3 C3         -0.2987   -0.7878   -1.1425 C.ar      1 <0>        -0.1085
      4 C4         -0.1678   -2.1616   -1.0659 C.ar      1 <0>        -0.1059
      5 C5          0.0210   -2.7789    0.1650 C.ar      1 <0>         0.1457
      6 C6          0.0789   -2.0166    1.3209 C.ar      1 <0>        -0.0793
      7 C7         -0.0475   -0.6294    1.2431 C.ar      1 <0>        -0.1243
      8 C8          0.0187    0.1914    2.4709 C.2       1 <0>         0.5644
      9 O1         -0.1689    1.3910    2.4109 O.2       1 <0>        -0.5125
     10 N1          0.2871   -0.3903    3.6567 N.am      1 <0>        -0.6515
     11 C9          0.4603    0.3996    4.8014 C.ar      1 <0>        -0.0205
     12 C10         0.9017    1.7156    4.6988 C.ar      1 <0>         0.1946
     13 N2          1.0537    2.4310    5.8009 N.ar      1 <0>        -0.5506
     14 C11         0.7915    1.9096    6.9898 C.ar      1 <0>         0.5490
     15 N3          0.3699    0.6614    7.1254 N.ar      1 <0>        -0.5513
     16 C12         0.1894   -0.1115    6.0673 C.ar      1 <0>         0.1740
     17 N4          0.9633    2.6907    8.1220 N.pl3     1 <0>        -0.8213
     18 N5          0.1521   -4.1706    0.2372 N.am      1 <0>        -0.6790
     19 C13        -0.3398   -4.8396    1.2987 C.2       1 <0>         0.7064
     20 O2         -0.9839   -4.2492    2.1442 O.2       1 <0>        -0.5538
     21 N6         -0.1178   -6.1632    1.4229 N.am      1 <0>        -0.6804
     22 C14        -0.7227   -6.8796    2.4617 C.ar      1 <0>         0.1631
     23 C15        -1.9965   -6.5352    2.8949 C.ar      1 <0>        -0.0864
     24 C16        -2.5909   -7.2445    3.9199 C.ar      1 <0>        -0.0972
     25 C17        -1.9191   -8.2968    4.5150 C.ar      1 <0>        -0.0850
     26 C18        -0.6507   -8.6418    4.0863 C.ar      1 <0>        -0.1618
     27 C19        -0.0530   -7.9399    3.0576 C.ar      1 <0>        -0.0964
     28 C20         0.0780   -9.7888    4.7378 C.3       1 <0>         0.5097
     29 F1         -0.7256  -10.3426    5.7402 F         1 <0>        -0.1744
     30 F2          0.3645  -10.7650    3.7774 F         1 <0>        -0.1758
     31 F3          1.2714   -9.3238    5.3005 F         1 <0>        -0.1751
     32 H1          0.6027    1.9380   -0.0833 H         1 <0>         0.0762
     33 H2         -0.9046    1.7390   -1.0087 H         1 <0>         0.0613
     34 H3         -0.9576    1.8399    0.7676 H         1 <0>         0.1031
     35 H4         -0.4459   -0.3139   -2.1017 H         1 <0>         0.1384
     36 H5         -0.2126   -2.7575   -1.9655 H         1 <0>         0.1339
     37 H6          0.2252   -2.4945    2.2783 H         1 <0>         0.1386
     38 H7          0.3604   -1.3556    3.7179 H         1 <0>         0.4132
     39 H8          1.1177    2.1467    3.7324 H         1 <0>         0.1849
     40 H9         -0.1593   -1.1269    6.1845 H         1 <0>         0.1704
     41 H10         1.2718    3.6064    8.0373 H         1 <0>         0.4154
     42 H11         0.7749    2.3216    8.9990 H         1 <0>         0.4147
     43 H12         0.5971   -4.6535   -0.4768 H         1 <0>         0.4122
     44 H13         0.4613   -6.6191    0.7923 H         1 <0>         0.4126
     45 H14        -2.5215   -5.7133    2.4309 H         1 <0>         0.1450
     46 H15        -3.5813   -6.9769    4.2575 H         1 <0>         0.1413
     47 H16        -2.3860   -8.8499    5.3164 H         1 <0>         0.1419
     48 H17         0.9359   -8.2130    2.7199 H         1 <0>         0.1378
@<TRIPOS>BOND
     1    1    2 1
     2    1   32 1
     3    1   33 1
     4    1   34 1
     5    2    7 ar
     6    2    3 ar
     7    3    4 ar
     8    3   35 1
     9    4    5 ar
    10    4   36 1
    11    5    6 ar
    12    5   18 1
    13    6    7 ar
    14    6   37 1
    15    7    8 1
    16    8    9 2
    17    8   10 am
    18   10   11 1
    19   10   38 1
    20   11   16 ar
    21   11   12 ar
    22   12   13 ar
    23   12   39 1
    24   13   14 ar
    25   14   15 ar
    26   14   17 1
    27   15   16 ar
    28   16   40 1
    29   17   41 1
    30   17   42 1
    31   18   19 am
    32   18   43 1
    33   19   20 2
    34   19   21 am
    35   21   22 1
    36   21   44 1
    37   22   27 ar
    38   22   23 ar
    39   23   24 ar
    40   23   45 1
    41   24   25 ar
    42   24   46 1
    43   25   26 ar
    44   25   47 1
    45   26   27 ar
    46   26   28 1
    47   27   48 1
    48   28   29 1
    49   28   30 1
    50   28   31 1
@<TRIPOS>MOLECULE
CHEMBL84807
   30    32     0     0     0
SMALL
USER_CHARGES

@<TRIPOS>ATOM
      1 C1          0.0043    1.3141   -0.6350 C.ar      1 <0>        -0.1882
      2 C2          1.1915    2.0123   -0.7358 C.ar      1 <0>        -0.0153
      3 C3          2.4029    1.3743   -0.4761 C.ar      1 <0>        -0.1877
      4 C4          2.4119    0.0147   -0.1104 C.ar      1 <0>        -0.0850
      5 C5          1.2142   -0.6789   -0.0117 C.ar      1 <0>        -0.1466
      6 C6          0.0091   -0.0283   -0.2743 C.ar      1 <0>         0.2290
      7 N1         -1.1904   -0.7240   -0.1751 N.pl3     1 <0>        -0.8698
      8 C7          3.8150   -0.4148    0.1073 C.2       1 <0>         0.4505
      9 O1          4.1830   -1.5267    0.4326 O.2       1 <0>        -0.4523
     10 C8          4.6823    0.7508   -0.1423 C.2       1 <0>        -0.3653
     11 C9          6.0550    0.7862   -0.0520 C.2       1 <0>         0.1526
     12 C10         6.7636    2.0632   -0.1624 C.ar      1 <0>        -0.2638
     13 C11         7.9648    2.1418   -0.8816 C.ar      1 <0>         0.0170
     14 C12         8.6261    3.3446   -0.9824 C.ar      1 <0>        -0.2259
     15 C13         8.1050    4.4815   -0.3718 C.ar      1 <0>         0.3317
     16 C14         6.9132    4.4096    0.3432 C.ar      1 <0>        -0.2224
     17 C15         6.2403    3.2133    0.4459 C.ar      1 <0>         0.0569
     18 Br1         6.2133    5.9599    1.1693 Br        1 <0>        -0.0795
     19 O2          8.7617    5.6646   -0.4738 O.3       1 <0>        -0.6360
     20 Br2        10.2461    3.4526   -1.9518 Br        1 <0>        -0.0797
     21 C16         3.7961    1.8720   -0.5080 C.2       1 <0>         0.4401
     22 O3          4.1475    3.0022   -0.7864 O.2       1 <0>        -0.4209
     23 H1         -0.9322    1.8143   -0.8330 H         1 <0>         0.1301
     24 H2          1.1811    3.0550   -1.0169 H         1 <0>         0.1351
     25 H3          1.2153   -1.7219    0.2688 H         1 <0>         0.1308
     26 H4         -2.0294   -0.2726   -0.3575 H         1 <0>         0.4010
     27 H5         -1.1884   -1.6608    0.0766 H         1 <0>         0.4007
     28 H6          6.6099   -0.1278    0.1003 H         1 <0>         0.1335
     29 H7          8.3705    1.2600   -1.3553 H         1 <0>         0.1162
     30 H8          5.3134    3.1595    0.9976 H         1 <0>         0.1132
@<TRIPOS>BOND
     1    1    6 ar
     2    1    2 ar
     3    1   23 1
     4    2    3 ar
     5    2   24 1
     6    3   21 1
     7    3    4 ar
     8    4    5 ar
     9    4    8 1
    10    5    6 ar
    11    5   25 1
    12    6    7 1
    13    7   26 1
    14    7   27 1
    15    8    9 2
    16    8   10 1
    17   10   11 2
    18   10   21 1
    19   11   12 1
    20   11   28 1
    21   12   17 ar
    22   12   13 ar
    23   13   14 ar
    24   13   29 1
    25   14   15 ar
    26   14   20 1
    27   15   16 ar
    28   15   19 1
    29   16   17 ar
    30   16   18 1
    31   17   30 1
    32   21   22 2
@<TRIPOS>MOLECULE
CHEMBL84807__1
   31    33     0     0     0
SMALL
USER_CHARGES

@<TRIPOS>ATOM
      1 C1          0.0043    1.3141   -0.6350 C.ar      1 <0>        -0.1854
      2 C2          1.1915    2.0123   -0.7358 C.ar      1 <0>        -0.0035
      3 C3          2.4029    1.3743   -0.4761 C.ar      1 <0>        -0.2034
      4 C4          2.4119    0.0147   -0.1104 C.ar      1 <0>        -0.0843
      5 C5          1.2142   -0.6789   -0.0117 C.ar      1 <0>        -0.1415
      6 C6          0.0091   -0.0283   -0.2743 C.ar      1 <0>         0.2440
      7 N1         -1.1904   -0.7240   -0.1751 N.pl3     1 <0>        -0.8618
      8 C7          3.8150   -0.4148    0.1073 C.2       1 <0>         0.4469
      9 O1          4.1830   -1.5267    0.4326 O.2       1 <0>        -0.4215
     10 C8          4.6823    0.7508   -0.1423 C.2       1 <0>        -0.2862
     11 C9          6.0550    0.7862   -0.0520 C.2       1 <0>         0.0881
     12 C10         6.7636    2.0632   -0.1624 C.ar      1 <0>        -0.1093
     13 C11         7.9648    2.1418   -0.8816 C.ar      1 <0>        -0.0252
     14 C12         8.6261    3.3446   -0.9824 C.ar      1 <0>        -0.1301
     15 C13         8.1050    4.4815   -0.3718 C.ar      1 <0>         0.1903
     16 C14         6.9132    4.4096    0.3432 C.ar      1 <0>        -0.1247
     17 C15         6.2403    3.2133    0.4459 C.ar      1 <0>         0.0119
     18 Br1         6.2133    5.9599    1.1693 Br        1 <0>        -0.0151
     19 O2          8.7617    5.6646   -0.4738 O.3       1 <0>        -0.4722
     20 Br2        10.2461    3.4526   -1.9518 Br        1 <0>        -0.0160
     21 C16         3.7961    1.8720   -0.5080 C.2       1 <0>         0.4438
     22 O3          4.1475    3.0022   -0.7864 O.2       1 <0>        -0.4269
     23 H1         -0.9322    1.8143   -0.8330 H         1 <0>         0.1366
     24 H2          1.1811    3.0550   -1.0169 H         1 <0>         0.1383
     25 H3          1.2153   -1.7219    0.2688 H         1 <0>         0.1368
     26 H4         -2.0294   -0.2726   -0.3575 H         1 <0>         0.4057
     27 H5         -1.1884   -1.6608    0.0766 H         1 <0>         0.4049
     28 H6          6.6099   -0.1278    0.1003 H         1 <0>         0.1593
     29 H7          8.3705    1.2600   -1.3553 H         1 <0>         0.1511
     30 H8          5.3134    3.1595    0.9976 H         1 <0>         0.1457
     31 H9          8.4998    6.1952   -1.2386 H         1 <0>         0.4035
@<TRIPOS>BOND
     1    1    6 ar
     2    1    2 ar
     3    1   23 1
     4    2    3 ar
     5    2   24 1
     6    3   21 1
     7    3    4 ar
     8    4    5 ar
     9    4    8 1
    10    5    6 ar
    11    5   25 1
    12    6    7 1
    13    7   26 1
    14    7   27 1
    15    8    9 2
    16    8   10 1
    17   10   11 2
    18   10   21 1
    19   11   12 1
    20   11   28 1
    21   12   17 ar
    22   12   13 ar
    23   13   14 ar
    24   13   29 1
    25   14   15 ar
    26   14   20 1
    27   15   16 ar
    28   15   19 1
    29   16   17 ar
    30   16   18 1
    31   17   30 1
    32   19   31 1
    33   21   22 2
@<TRIPOS>MOLECULE
CHEMBL108841
   59    63     0     0     0
SMALL
USER_CHARGES

@<TRIPOS>ATOM
      1 C1          1.8855   -1.6286    0.4181 C.3       1 <0>        -0.1121
      2 C2          0.6945   -2.4113   -0.0718 C.ar      1 <0>        -0.0718
      3 C3          0.8395   -3.3161   -1.1058 C.ar      1 <0>        -0.1105
      4 C4         -0.2521   -4.0352   -1.5560 C.ar      1 <0>        -0.0992
      5 C5         -1.4932   -3.8519   -0.9734 C.ar      1 <0>        -0.1124
      6 C6         -1.6457   -2.9484    0.0608 C.ar      1 <0>        -0.0110
      7 C7         -0.5484   -2.2281    0.5194 C.ar      1 <0>         0.1526
      8 N1         -0.6973   -1.3174    1.5699 N.pl3     1 <0>        -0.6462
      9 C8         -0.9844   -1.7724    2.8441 C.2       1 <0>         0.4937
     10 C9         -1.0277   -0.8348    3.9639 C.2       1 <0>        -0.0760
     11 C10        -0.8381    0.5195    4.0904 C.2       1 <0>         0.0403
     12 N2         -1.0081    0.8297    5.3779 N.2       1 <0>        -0.4669
     13 C11        -1.2924   -0.2515    6.0610 C.2       1 <0>         0.1945
     14 N3         -1.3163   -1.3079    5.2305 N.pl3     1 <0>        -0.3569
     15 C12        -1.5573   -2.6671    5.3997 C.ar      1 <0>         0.0547
     16 C13        -1.8503   -3.1740    6.6585 C.ar      1 <0>        -0.1726
     17 C14        -2.0894   -4.5261    6.8229 C.ar      1 <0>         0.1208
     18 C15        -2.0373   -5.3866    5.7258 C.ar      1 <0>         0.1305
     19 C16        -1.7471   -4.8952    4.4696 C.ar      1 <0>        -0.1510
     20 C17        -1.5038   -3.5274    4.2917 C.ar      1 <0>         0.1583
     21 N4         -1.2242   -3.0490    3.0496 N.2       1 <0>        -0.5359
     22 O1         -2.2731   -6.7154    5.8954 O.3       1 <0>        -0.2960
     23 C18        -2.2040   -7.5404    4.7306 C.3       1 <0>         0.0227
     24 O2         -2.3757   -5.0188    8.0580 O.3       1 <0>        -0.2773
     25 C19        -2.4125   -4.0828    9.1372 C.3       1 <0>         0.0617
     26 C20        -2.7475   -4.8166   10.4374 C.3       1 <0>         0.0558
     27 N5         -1.6590   -5.7452   10.7700 N.3       1 <0>        -0.5298
     28 C21        -2.1157   -6.7759   11.7136 C.3       1 <0>         0.0193
     29 C22        -0.9702   -7.7544   11.9859 C.3       1 <0>         0.0628
     30 O3          0.1606   -7.0313   12.4796 O.3       1 <0>        -0.3852
     31 C23         0.6322   -6.0197   11.5854 C.3       1 <0>         0.0637
     32 C24        -0.4971   -5.0236   11.3090 C.3       1 <0>         0.0142
     33 Cl1        -3.2037   -2.7179    0.7910 Cl        1 <0>        -0.0549
     34 H1          2.3842   -2.1848    1.2119 H         1 <0>         0.0741
     35 H2          2.5804   -1.4704   -0.4066 H         1 <0>         0.0733
     36 H3          1.5532   -0.6646    0.8033 H         1 <0>         0.0667
     37 H4          1.8069   -3.4615   -1.5633 H         1 <0>         0.1330
     38 H5         -0.1356   -4.7415   -2.3647 H         1 <0>         0.1346
     39 H6         -2.3438   -4.4153   -1.3275 H         1 <0>         0.1356
     40 H7         -0.5993   -0.3665    1.4050 H         1 <0>         0.4227
     41 H8         -0.5955    1.2077    3.2942 H         1 <0>         0.1847
     42 H9         -1.4779   -0.2882    7.1243 H         1 <0>         0.2130
     43 H10        -1.8913   -2.5115    7.5105 H         1 <0>         0.1417
     44 H11        -1.7073   -5.5654    3.6236 H         1 <0>         0.1536
     45 H12        -2.9411   -7.2028    4.0020 H         1 <0>         0.0584
     46 H13        -1.2066   -7.4731    4.2963 H         1 <0>         0.0584
     47 H14        -2.4118   -8.5746    5.0051 H         1 <0>         0.1044
     48 H15        -1.4400   -3.6000    9.2327 H         1 <0>         0.0630
     49 H16        -3.1744   -3.3291    8.9387 H         1 <0>         0.0678
     50 H17        -2.8661   -4.0922   11.2432 H         1 <0>         0.0626
     51 H18        -3.6753   -5.3746   10.3110 H         1 <0>         0.0901
     52 H19        -2.4215   -6.3045   12.6476 H         1 <0>         0.0434
     53 H20        -2.9601   -7.3146   11.2836 H         1 <0>         0.0892
     54 H21        -1.2861   -8.4871   12.7285 H         1 <0>         0.0993
     55 H22        -0.7003   -8.2652   11.0616 H         1 <0>         0.0620
     56 H23         1.4752   -5.4978   12.0383 H         1 <0>         0.0984
     57 H24         0.9487   -6.4800   10.6494 H         1 <0>         0.0610
     58 H25        -0.1599   -4.2832   10.5836 H         1 <0>         0.0840
     59 H26        -0.7770   -4.5242   12.2365 H         1 <0>         0.0447
@<TRIPOS>BOND
     1    1    2 1
     2    1   34 1
     3    1   35 1
     4    1   36 1
     5    2    7 ar
     6    2    3 ar
     7    3    4 ar
     8    3   37 1
     9    4    5 ar
    10    4   38 1
    11    5    6 ar
    12    5   39 1
    13    6    7 ar
    14    6   33 1
    15    7    8 1
    16    8    9 1
    17    8   40 1
    18    9   21 2
    19    9   10 1
    20   10   14 1
    21   10   11 2
    22   11   12 1
    23   11   41 1
    24   12   13 2
    25   13   14 1
    26   13   42 1
    27   14   15 1
    28   15   20 ar
    29   15   16 ar
    30   16   17 ar
    31   16   43 1
    32   17   18 ar
    33   17   24 1
    34   18   19 ar
    35   18   22 1
    36   19   20 ar
    37   19   44 1
    38   20   21 1
    39   22   23 1
    40   23   45 1
    41   23   46 1
    42   23   47 1
    43   24   25 1
    44   25   26 1
    45   25   48 1
    46   25   49 1
    47   26   27 1
    48   26   50 1
    49   26   51 1
    50   27   32 1
    51   27   28 1
    52   28   29 1
    53   28   52 1
    54   28   53 1
    55   29   30 1
    56   29   54 1
    57   29   55 1
    58   30   31 1
    59   31   32 1
    60   31   56 1
    61   31   57 1
    62   32   58 1
    63   32   59 1
@<TRIPOS>MOLECULE
CHEMBL108841__1
   60    64     0     0     0
SMALL
USER_CHARGES

@<TRIPOS>ATOM
      1 C1          2.2551   -1.0502    0.8014 C.3       1 <0>        -0.1134
      2 C2          1.0944   -1.8174    0.2225 C.ar      1 <0>        -0.0689
      3 C3          1.2917   -2.6638   -0.8514 C.ar      1 <0>        -0.1090
      4 C4          0.2278   -3.3686   -1.3833 C.ar      1 <0>        -0.0944
      5 C5         -1.0377   -3.2292   -0.8428 C.ar      1 <0>        -0.1116
      6 C6         -1.2425   -2.3841    0.2310 C.ar      1 <0>        -0.0099
      7 C7         -0.1734   -1.6785    0.7715 C.ar      1 <0>         0.1429
      8 N1         -0.3754   -0.8270    1.8620 N.pl3     1 <0>        -0.6374
      9 C8         -0.7093   -1.3525    3.0972 C.2       1 <0>         0.5116
     10 C9         -0.8116   -0.4765    4.2620 C.2       1 <0>        -0.0807
     11 C10        -0.6453    0.8711    4.4679 C.2       1 <0>         0.0543
     12 N2         -0.8728    1.1103    5.7616 N.2       1 <0>        -0.4622
     13 C11        -1.1712   -0.0089    6.3740 C.2       1 <0>         0.1977
     14 N3         -1.1465   -1.0197    5.4885 N.pl3     1 <0>        -0.3632
     15 C12        -1.3765   -2.3885    5.5753 C.ar      1 <0>         0.0486
     16 C13        -1.7151   -2.9650    6.7920 C.ar      1 <0>        -0.1546
     17 C14        -1.9431   -4.3265    6.8744 C.ar      1 <0>         0.0887
     18 C15        -1.8340   -5.1266    5.7365 C.ar      1 <0>         0.1384
     19 C16        -1.4982   -4.5657    4.5215 C.ar      1 <0>        -0.1515
     20 C17        -1.2656   -3.1878    4.4266 C.ar      1 <0>         0.1838
     21 N4         -0.9407   -2.6408    3.2245 N.2       1 <0>        -0.5469
     22 O1         -2.0592   -6.4650    5.8255 O.3       1 <0>        -0.3059
     23 C18        -1.9308   -7.2259    4.6228 C.3       1 <0>         0.0206
     24 O2         -2.2742   -4.8874    8.0685 O.3       1 <0>        -0.3104
     25 C19        -2.3682   -4.0109    9.1932 C.3       1 <0>         0.0212
     26 C20        -2.7475   -4.8166   10.4374 C.3       1 <0>         0.0012
     27 N5         -1.6590   -5.7452   10.7700 N.4       1 <0>        -0.3875
     28 C21        -2.0858   -6.6288   11.8637 C.3       1 <0>        -0.0434
     29 C22        -0.9501   -7.5955   12.2083 C.3       1 <0>         0.0353
     30 O3          0.2156   -6.8463   12.5627 O.3       1 <0>        -0.3558
     31 C23         0.6569   -5.9523   11.5371 C.3       1 <0>         0.0371
     32 C24        -0.4758   -4.9825   11.1913 C.3       1 <0>        -0.0500
     33 Cl1        -2.8313   -2.2086    0.9083 Cl        1 <0>        -0.0561
     34 H1          2.7283   -1.6432    1.5841 H         1 <0>         0.0739
     35 H2          2.9807   -0.8410    0.0153 H         1 <0>         0.0764
     36 H3          1.8960   -0.1116    1.2235 H         1 <0>         0.0664
     37 H4          2.2784   -2.7748   -1.2762 H         1 <0>         0.1357
     38 H5          0.3852   -4.0292   -2.2230 H         1 <0>         0.1373
     39 H6         -1.8666   -3.7812   -1.2607 H         1 <0>         0.1376
     40 H7         -0.2813    0.1322    1.7524 H         1 <0>         0.4255
     41 H8         -0.3787    1.6034    3.7202 H         1 <0>         0.1892
     42 H9         -1.4003   -0.1043    7.4251 H         1 <0>         0.2133
     43 H10        -1.8003   -2.3494    7.6753 H         1 <0>         0.1418
     44 H11        -1.4143   -5.1893    3.6437 H         1 <0>         0.1588
     45 H12        -2.6412   -6.8579    3.8825 H         1 <0>         0.0638
     46 H13        -0.9171   -7.1246    4.2352 H         1 <0>         0.0626
     47 H14        -2.1362   -8.2755    4.8331 H         1 <0>         0.1082
     48 H15        -1.4069   -3.5233    9.3552 H         1 <0>         0.0852
     49 H16        -3.1310   -3.2560    9.0027 H         1 <0>         0.1109
     50 H17        -2.9138   -4.1372   11.2734 H         1 <0>         0.1514
     51 H18        -3.6592   -5.3808   10.2409 H         1 <0>         0.1462
     52 H19        -2.3318   -6.0296   12.7404 H         1 <0>         0.1402
     53 H20        -2.9635   -7.1952   11.5522 H         1 <0>         0.1445
     54 H21        -1.2485   -8.2232   13.0479 H         1 <0>         0.1433
     55 H22        -0.7310   -8.2225   11.3440 H         1 <0>         0.0822
     56 H23         1.5215   -5.3908   11.8910 H         1 <0>         0.1424
     57 H24         0.9310   -6.5231   10.6498 H         1 <0>         0.0819
     58 H25        -0.1583   -4.3268   10.3806 H         1 <0>         0.1391
     59 H26        -0.7224   -4.3839   12.0682 H         1 <0>         0.1417
     60 H27        -1.4304   -6.3000    9.9588 H         1 <0>         0.4315
@<TRIPOS>BOND
     1    1    2 1
     2    1   34 1
     3    1   35 1
     4    1   36 1
     5    2    7 ar
     6    2    3 ar
     7    3    4 ar
     8    3   37 1
     9    4    5 ar
    10    4   38 1
    11    5    6 ar
    12    5   39 1
    13    6    7 ar
    14    6   33 1
    15    7    8 1
    16    8    9 1
    17    8   40 1
    18    9   21 2
    19    9   10 1
    20   10   14 1
    21   10   11 2
    22   11   12 1
    23   11   41 1
    24   12   13 2
    25   13   14 1
    26   13   42 1
    27   14   15 1
    28   15   20 ar
    29   15   16 ar
    30   16   17 ar
    31   16   43 1
    32   17   18 ar
    33   17   24 1
    34   18   19 ar
    35   18   22 1
    36   19   20 ar
    37   19   44 1
    38   20   21 1
    39   22   23 1
    40   23   45 1
    41   23   46 1
    42   23   47 1
    43   24   25 1
    44   25   26 1
    45   25   48 1
    46   25   49 1
    47   26   27 1
    48   26   50 1
    49   26   51 1
    50   27   32 1
    51   27   28 1
    52   27   60 1
    53   28   29 1
    54   28   52 1
    55   28   53 1
    56   29   30 1
    57   29   54 1
    58   29   55 1
    59   30   31 1
    60   31   32 1
    61   31   56 1
    62   31   57 1
    63   32   58 1
    64   32   59 1
@<TRIPOS>MOLECULE
CHEMBL108044
   53    57     0     0     0
SMALL
USER_CHARGES

@<TRIPOS>ATOM
      1 C1          2.6201   -0.1996    1.3664 C.3       1 <0>        -0.1143
      2 C2          1.4461   -0.8586    0.6893 C.ar      1 <0>        -0.0686
      3 C3          1.6358   -1.5880   -0.4685 C.ar      1 <0>        -0.1096
      4 C4          0.5597   -2.1931   -1.0908 C.ar      1 <0>        -0.0965
      5 C5         -0.7105   -2.0703   -0.5574 C.ar      1 <0>        -0.1131
      6 C6         -0.9077   -1.3423    0.6003 C.ar      1 <0>        -0.0099
      7 C7          0.1736   -0.7379    1.2317 C.ar      1 <0>         0.1459
      8 N1         -0.0208   -0.0052    2.4066 N.pl3     1 <0>        -0.6389
      9 C8         -0.3951   -0.6509    3.5698 C.2       1 <0>         0.5181
     10 C9         -0.4885    0.0941    4.8232 C.2       1 <0>        -0.0909
     11 C10        -0.2790    1.4036    5.1799 C.2       1 <0>         0.0546
     12 N2         -0.5222    1.5065    6.4885 N.2       1 <0>        -0.4662
     13 C11        -0.8709    0.3380    6.9682 C.2       1 <0>         0.2041
     14 N3         -0.8650   -0.5686    5.9767 N.pl3     1 <0>        -0.3608
     15 C12        -1.1443   -1.9298    5.9073 C.ar      1 <0>         0.0094
     16 C13        -1.5255   -2.6249    7.0468 C.ar      1 <0>        -0.0530
     17 C14        -1.8018   -3.9741    6.9753 C.ar      1 <0>        -0.1853
     18 C15        -1.7005   -4.6482    5.7609 C.ar      1 <0>         0.2204
     19 C16        -1.3220   -3.9700    4.6166 C.ar      1 <0>        -0.1674
     20 C17        -1.0398   -2.6006    4.6781 C.ar      1 <0>         0.2077
     21 N4         -0.6734   -1.9367    3.5497 N.2       1 <0>        -0.5569
     22 N5         -1.9821   -6.0161    5.6984 N.pl3     1 <0>        -0.6418
     23 C18        -1.7569   -6.7789    4.4609 C.3       1 <0>         0.0977
     24 C19        -0.9400   -8.0293    4.8029 C.3       1 <0>        -0.0225
     25 N6         -1.6208   -8.7825    5.8637 N.4       1 <0>        -0.3842
     26 C20        -1.6592   -7.9861    7.0968 C.3       1 <0>        -0.0231
     27 C21        -2.5064   -6.7347    6.8700 C.3       1 <0>         0.0980
     28 C22        -0.8962  -10.0354    6.1146 C.3       1 <0>        -0.0471
     29 Cl1        -2.5022   -1.1881    1.2692 Cl        1 <0>        -0.0548
     30 H1          3.0596   -0.8906    2.0857 H         1 <0>         0.0740
     31 H2          3.3663    0.0700    0.6190 H         1 <0>         0.0763
     32 H3          2.2837    0.6986    1.8843 H         1 <0>         0.0674
     33 H4          2.6261   -1.6854   -0.8883 H         1 <0>         0.1351
     34 H5          0.7112   -2.7626   -1.9958 H         1 <0>         0.1362
     35 H6         -1.5491   -2.5437   -1.0464 H         1 <0>         0.1363
     36 H7          0.1070    0.9564    2.4053 H         1 <0>         0.4257
     37 H8          0.0268    2.2038    4.5221 H         1 <0>         0.1870
     38 H9         -1.1228    0.1355    7.9987 H         1 <0>         0.2170
     39 H10        -1.6055   -2.1079    7.9917 H         1 <0>         0.1367
     40 H11        -2.0976   -4.5103    7.8649 H         1 <0>         0.1339
     41 H12        -1.2439   -4.4965    3.6769 H         1 <0>         0.1392
     42 H13        -2.7150   -7.0732    4.0324 H         1 <0>         0.0902
     43 H14        -1.2063   -6.1656    3.7476 H         1 <0>         0.1286
     44 H15        -0.8454   -8.6556    3.9159 H         1 <0>         0.1421
     45 H16         0.0512   -7.7332    5.1463 H         1 <0>         0.1328
     46 H17        -2.0946   -8.5806    7.9000 H         1 <0>         0.1422
     47 H18        -0.6462   -7.6913    7.3707 H         1 <0>         0.1327
     48 H19        -2.4511   -6.0922    7.7487 H         1 <0>         0.1279
     49 H20        -3.5415   -7.0245    6.6890 H         1 <0>         0.0898
     50 H21         0.1237   -9.8093    6.4258 H         1 <0>         0.1216
     51 H22        -1.4006  -10.5956    6.9019 H         1 <0>         0.1254
     52 H23        -0.8739  -10.6312    5.2020 H         1 <0>         0.1254
     53 H24        -2.5632   -8.9944    5.5723 H         1 <0>         0.4251
@<TRIPOS>BOND
     1    1    2 1
     2    1   30 1
     3    1   31 1
     4    1   32 1
     5    2    7 ar
     6    2    3 ar
     7    3    4 ar
     8    3   33 1
     9    4    5 ar
    10    4   34 1
    11    5    6 ar
    12    5   35 1
    13    6    7 ar
    14    6   29 1
    15    7    8 1
    16    8    9 1
    17    8   36 1
    18    9   21 2
    19    9   10 1
    20   10   14 1
    21   10   11 2
    22   11   12 1
    23   11   37 1
    24   12   13 2
    25   13   14 1
    26   13   38 1
    27   14   15 1
    28   15   20 ar
    29   15   16 ar
    30   16   17 ar
    31   16   39 1
    32   17   18 ar
    33   17   40 1
    34   18   19 ar
    35   18   22 1
    36   19   20 ar
    37   19   41 1
    38   20   21 1
    39   22   27 1
    40   22   23 1
    41   23   24 1
    42   23   42 1
    43   23   43 1
    44   24   25 1
    45   24   44 1
    46   24   45 1
    47   25   26 1
    48   25   28 1
    49   25   53 1
    50   26   27 1
    51   26   46 1
    52   26   47 1
    53   27   48 1
    54   27   49 1
    55   28   50 1
    56   28   51 1
    57   28   52 1
@<TRIPOS>MOLECULE
CHEMBL108044__1
   52    56     0     0     0
SMALL
USER_CHARGES

@<TRIPOS>ATOM
      1 C1          2.6174   -0.1989    1.3643 C.3       1 <0>        -0.1121
      2 C2          1.4429   -0.8579    0.6879 C.ar      1 <0>        -0.0721
      3 C3          1.6319   -1.5871   -0.4702 C.ar      1 <0>        -0.1110
      4 C4          0.5554   -2.1922   -1.0919 C.ar      1 <0>        -0.0994
      5 C5         -0.7145   -2.0695   -0.5576 C.ar      1 <0>        -0.1123
      6 C6         -0.9109   -1.3417    0.6003 C.ar      1 <0>        -0.0101
      7 C7          0.1708   -0.7373    1.2310 C.ar      1 <0>         0.1525
      8 N1         -0.0229   -0.0047    2.4062 N.pl3     1 <0>        -0.6458
      9 C8         -0.3965   -0.6506    3.5695 C.2       1 <0>         0.5026
     10 C9         -0.4892    0.0942    4.8230 C.2       1 <0>        -0.0843
     11 C10        -0.2795    1.4037    5.1798 C.2       1 <0>         0.0402
     12 N2         -0.5219    1.5064    6.4886 N.2       1 <0>        -0.4718
     13 C11        -0.8703    0.3379    6.9683 C.2       1 <0>         0.1924
     14 N3         -0.8650   -0.5686    5.9767 N.pl3     1 <0>        -0.3497
     15 C12        -1.1443   -1.9298    5.9073 C.ar      1 <0>        -0.0116
     16 C13        -1.5248   -2.6250    7.0470 C.ar      1 <0>        -0.0545
     17 C14        -1.8011   -3.9743    6.9754 C.ar      1 <0>        -0.1884
     18 C15        -1.7005   -4.6482    5.7609 C.ar      1 <0>         0.2433
     19 C16        -1.3227   -3.9699    4.6165 C.ar      1 <0>        -0.1796
     20 C17        -1.0405   -2.6004    4.6779 C.ar      1 <0>         0.2035
     21 N4         -0.6748   -1.9364    3.5494 N.2       1 <0>        -0.5456
     22 N5         -1.9821   -6.0161    5.6984 N.pl3     1 <0>        -0.6248
     23 C18        -1.7565   -6.7774    4.4604 C.3       1 <0>         0.1236
     24 C19        -0.9233   -8.0186    4.7973 C.3       1 <0>         0.0390
     25 N6         -1.5809   -8.7679    5.8761 N.3       1 <0>        -0.5425
     26 C20        -1.6491   -7.9750    7.1109 C.3       1 <0>         0.0379
     27 C21        -2.5062   -6.7333    6.8706 C.3       1 <0>         0.1236
     28 C22        -0.9075  -10.0520    6.1116 C.3       1 <0>         0.0243
     29 Cl1        -2.5050   -1.1875    1.2702 Cl        1 <0>        -0.0538
     30 H1          3.0573   -0.8901    2.0833 H         1 <0>         0.0739
     31 H2          3.3630    0.0708    0.6165 H         1 <0>         0.0731
     32 H3          2.2812    0.6991    1.8826 H         1 <0>         0.0667
     33 H4          2.6220   -1.6844   -0.8906 H         1 <0>         0.1327
     34 H5          0.7064   -2.7616   -1.9971 H         1 <0>         0.1343
     35 H6         -1.5533   -2.5428   -1.0462 H         1 <0>         0.1355
     36 H7          0.1049    0.9568    2.4049 H         1 <0>         0.4226
     37 H8          0.0259    2.2040    4.5220 H         1 <0>         0.1826
     38 H9         -1.1216    0.1352    7.9989 H         1 <0>         0.2134
     39 H10        -1.6043   -2.1082    7.9919 H         1 <0>         0.1311
     40 H11        -2.0964   -4.5106    7.8651 H         1 <0>         0.1347
     41 H12        -1.2452   -4.4963    3.6767 H         1 <0>         0.1391
     42 H13        -2.7141   -7.0827    4.0385 H         1 <0>         0.0737
     43 H14        -1.2177   -6.1585    3.7429 H         1 <0>         0.0893
     44 H15        -0.8395   -8.6513    3.9136 H         1 <0>         0.0877
     45 H16         0.0713   -7.7121    5.1212 H         1 <0>         0.0391
     46 H17        -2.0917   -8.5760    7.9052 H         1 <0>         0.0878
     47 H18        -0.6444   -7.6690    7.4026 H         1 <0>         0.0387
     48 H19        -2.4630   -6.0851    7.7459 H         1 <0>         0.0882
     49 H20        -3.5373   -7.0342    6.6849 H         1 <0>         0.0737
     50 H21         0.1300   -9.8719    6.3933 H         1 <0>         0.0262
     51 H22        -1.4146  -10.5863    6.9151 H         1 <0>         0.0708
     52 H23        -0.9382  -10.6507    5.2013 H         1 <0>         0.0713
@<TRIPOS>BOND
     1    1    2 1
     2    1   30 1
     3    1   31 1
     4    1   32 1
     5    2    7 ar
     6    2    3 ar
     7    3    4 ar
     8    3   33 1
     9    4    5 ar
    10    4   34 1
    11    5    6 ar
    12    5   35 1
    13    6    7 ar
    14    6   29 1
    15    7    8 1
    16    8    9 1
    17    8   36 1
    18    9   21 2
    19    9   10 1
    20   10   14 1
    21   10   11 2
    22   11   12 1
    23   11   37 1
    24   12   13 2
    25   13   14 1
    26   13   38 1
    27   14   15 1
    28   15   20 ar
    29   15   16 ar
    30   16   17 ar
    31   16   39 1
    32   17   18 ar
    33   17   40 1
    34   18   19 ar
    35   18   22 1
    36   19   20 ar
    37   19   41 1
    38   20   21 1
    39   22   27 1
    40   22   23 1
    41   23   24 1
    42   23   42 1
    43   23   43 1
    44   24   25 1
    45   24   44 1
    46   24   45 1
    47   25   26 1
    48   25   28 1
    49   26   27 1
    50   26   46 1
    51   26   47 1
    52   27   48 1
    53   27   49 1
    54   28   50 1
    55   28   51 1
    56   28   52 1
@<TRIPOS>MOLECULE
CHEMBL401930
   60    64     0     0     0
SMALL
USER_CHARGES

@<TRIPOS>ATOM
      1 C1          0.1861    0.9402    0.2320 C.3       1 <0>        -0.1099
      2 C2          0.1885   -0.5661    0.2760 C.ar      1 <0>         0.0105
      3 C3          0.2130   -1.2834   -0.8862 C.ar      1 <0>        -0.1934
      4 C4          0.2155   -2.6762   -0.8597 C.ar      1 <0>         0.2379
      5 C5          0.1931   -3.3524    0.3500 C.ar      1 <0>        -0.2114
      6 C6          0.1681   -2.6355    1.5366 C.ar      1 <0>         0.1009
      7 C7          0.1715   -1.2297    1.5066 C.ar      1 <0>         0.0140
      8 N1          0.1514   -0.8003    2.7941 N.2       1 <0>        -0.5153
      9 C8          0.1414   -1.8338    3.6037 C.2       1 <0>         0.3723
     10 N2          0.1421   -2.9944    2.8723 N.pl3     1 <0>        -0.5878
     11 H1          0.1365   -3.8977    3.2257 H         1 <0>         0.4313
     12 C9          0.1201   -1.7586    5.0739 C.2       1 <0>        -0.2944
     13 C10        -0.0136   -0.5236    5.7239 C.2       1 <0>         0.3534
     14 C11        -0.0298   -0.4970    7.1313 C.2       1 <0>        -0.2716
     15 C12         0.0823   -1.6480    7.8290 C.2       1 <0>         0.1820
     16 N3          0.2123   -2.8452    7.1992 N.am      1 <0>        -0.6203
     17 H2          0.2910   -3.6547    7.7279 H         1 <0>         0.4189
     18 C13         0.2280   -2.9303    5.8560 C.2       1 <0>         0.5553
     19 O1          0.3405   -4.0175    5.3144 O.2       1 <0>        -0.5664
     20 N4         -0.1266    0.6435    4.9980 N.pl3     1 <0>        -0.6861
     21 C14        -0.1433    1.9361    5.6873 C.3       1 <0>         0.0780
     22 C15        -0.2761    3.0609    4.6587 C.3       1 <0>         0.1422
     23 H3          0.5199    2.9729    3.9193 H         1 <0>         0.1199
     24 C16        -0.1701    4.3933    5.3548 C.ar      1 <0>        -0.1060
     25 C17        -1.2638    4.9136    6.0217 C.ar      1 <0>        -0.1059
     26 C18        -1.1674    6.1356    6.6604 C.ar      1 <0>        -0.1011
     27 C19         0.0226    6.8384    6.6324 C.ar      1 <0>        -0.1059
     28 C20         1.1172    6.3184    5.9653 C.ar      1 <0>        -0.0315
     29 C21         1.0218    5.0921    5.3312 C.ar      1 <0>        -0.0968
     30 Cl1         2.6119    7.2005    5.9296 Cl        1 <0>        -0.0631
     31 O2         -1.5442    2.9634    4.0072 O.3       1 <0>        -0.5411
     32 N5          0.2402   -3.3953   -2.0590 N.pl3     1 <0>        -0.6312
     33 C22         0.3654   -4.8615   -2.0606 C.3       1 <0>         0.0865
     34 C23        -0.7404   -5.4402   -2.9506 C.3       1 <0>         0.0458
     35 O3         -0.7012   -4.7983   -4.2274 O.3       1 <0>        -0.3797
     36 C24        -0.9535   -3.3918   -4.1834 C.3       1 <0>         0.0453
     37 C25         0.1357   -2.7087   -3.3563 C.3       1 <0>         0.0882
     38 H4          1.2131    1.3055    0.2367 H         1 <0>         0.0703
     39 H5         -0.3149    1.2764   -0.6758 H         1 <0>         0.0645
     40 H6         -0.3416    1.3283    1.1032 H         1 <0>         0.0739
     41 H7          0.2303   -0.7662   -1.8342 H         1 <0>         0.1282
     42 H8          0.1946   -4.4322    0.3682 H         1 <0>         0.1205
     43 H9         -0.1314    0.4433    7.6528 H         1 <0>         0.1523
     44 H10         0.0686   -1.6162    8.9085 H         1 <0>         0.1725
     45 H11        -0.1949    0.6085    4.0311 H         1 <0>         0.4342
     46 H12        -0.9888    1.9705    6.3745 H         1 <0>         0.0761
     47 H13         0.7842    2.0621    6.2458 H         1 <0>         0.0833
     48 H14        -2.1940    4.3651    6.0433 H         1 <0>         0.1287
     49 H15        -2.0220    6.5415    7.1812 H         1 <0>         0.1361
     50 H16         0.0976    7.7936    7.1308 H         1 <0>         0.1361
     51 H17         1.8773    4.6836    4.8140 H         1 <0>         0.1367
     52 H18        -2.3004    3.0335    4.6059 H         1 <0>         0.3756
     53 H19         1.3408   -5.1463   -2.4550 H         1 <0>         0.0707
     54 H20         0.2549   -5.2405   -1.0446 H         1 <0>         0.0921
     55 H21        -0.5831   -6.5114   -3.0767 H         1 <0>         0.1043
     56 H22        -1.7107   -5.2663   -2.4854 H         1 <0>         0.0557
     57 H23        -0.9495   -2.9893   -5.1964 H         1 <0>         0.1053
     58 H24        -1.9246   -3.2104   -3.7226 H         1 <0>         0.0555
     59 H25        -0.1269   -1.6627   -3.1979 H         1 <0>         0.0936
     60 H26         1.0876   -2.7730   -3.8834 H         1 <0>         0.0702
@<TRIPOS>BOND
     1    1    2 1
     2    1   38 1
     3    1   39 1
     4    1   40 1
     5    2    7 ar
     6    2    3 ar
     7    3    4 ar
     8    3   41 1
     9    4    5 ar
    10    4   32 1
    11    5    6 ar
    12    5   42 1
    13    6   10 1
    14    6    7 ar
    15    7    8 1
    16    8    9 2
    17    9   10 1
    18    9   12 1
    19   10   11 1
    20   12   18 1
    21   12   13 2
    22   13   14 1
    23   13   20 1
    24   14   15 2
    25   14   43 1
    26   15   16 1
    27   15   44 1
    28   16   17 1
    29   16   18 am
    30   18   19 2
    31   20   21 1
    32   20   45 1
    33   21   22 1
    34   21   46 1
    35   21   47 1
    36   22   23 1
    37   22   24 1
    38   22   31 1
    39   24   29 ar
    40   24   25 ar
    41   25   26 ar
    42   25   48 1
    43   26   27 ar
    44   26   49 1
    45   27   28 ar
    46   27   50 1
    47   28   29 ar
    48   28   30 1
    49   29   51 1
    50   31   52 1
    51   32   37 1
    52   32   33 1
    53   33   34 1
    54   33   53 1
    55   33   54 1
    56   34   35 1
    57   34   55 1
    58   34   56 1
    59   35   36 1
    60   36   37 1
    61   36   57 1
    62   36   58 1
    63   37   59 1
    64   37   60 1
@<TRIPOS>MOLECULE
CHEMBL403522
   75    81     0     0     0
SMALL
USER_CHARGES

@<TRIPOS>ATOM
      1 C1          0.4341    1.8413   -0.0961 C.3       1 <0>        -0.1155
      2 C2          0.2324    0.3490   -0.1538 C.ar      1 <0>        -0.0496
      3 C3          0.2379   -0.3027   -1.3715 C.ar      1 <0>        -0.1185
      4 C4          0.0534   -1.6721   -1.4253 C.ar      1 <0>        -0.0880
      5 C5         -0.1376   -2.3933   -0.2609 C.ar      1 <0>        -0.1184
      6 C6         -0.1446   -1.7474    0.9598 C.ar      1 <0>        -0.0493
      7 C7          0.0466   -0.3731    1.0177 C.ar      1 <0>         0.1123
      8 N1          0.0458    0.2840    2.2543 N.am      1 <0>        -0.4623
      9 C8          1.2075    0.4393    2.9214 C.2       1 <0>         0.5872
     10 O1          2.2501    0.0154    2.4596 O.2       1 <0>        -0.4745
     11 C9          1.1881    1.1310    4.2161 C.ar      1 <0>        -0.3266
     12 C10         2.3446    1.3333    4.9689 C.ar      1 <0>         0.2951
     13 N2          2.2399    1.9665    6.1252 N.ar      1 <0>        -0.5640
     14 C11         1.0651    2.4021    6.5653 C.ar      1 <0>         0.6148
     15 N3         -0.0587    2.2308    5.8813 N.ar      1 <0>        -0.5781
     16 C12        -0.0416    1.6066    4.7138 C.ar      1 <0>         0.4902
     17 N4         -1.1920    1.4097    3.9732 N.pl3     1 <0>        -0.4383
     18 C13        -1.1461    0.7664    2.7656 C.2       1 <0>         0.5182
     19 N5         -2.3580    0.7104    2.2567 N.2       1 <0>        -0.4632
     20 C14        -3.2404    1.3117    3.0938 C.ar      1 <0>         0.0831
     21 C15        -2.5131    1.7618    4.2077 C.ar      1 <0>         0.0490
     22 C16        -3.1630    2.4218    5.2388 C.ar      1 <0>        -0.0824
     23 C17        -4.5269    2.6217    5.1742 C.ar      1 <0>        -0.1032
     24 C18        -5.2527    2.1660    4.0840 C.ar      1 <0>        -0.1038
     25 C19        -4.6200    1.5277    3.0405 C.ar      1 <0>        -0.0674
     26 N6          1.0111    3.0568    7.7793 N.pl3     1 <0>        -0.6247
     27 C20         2.1942    3.3550    8.4673 C.ar      1 <0>         0.2119
     28 C21         3.3476    3.6683    7.7608 C.ar      1 <0>        -0.1396
     29 C22         4.5160    3.9629    8.4374 C.ar      1 <0>        -0.0593
     30 C23         4.5387    3.9462    9.8240 C.ar      1 <0>         0.0966
     31 C24         3.3827    3.6322   10.5350 C.ar      1 <0>         0.1535
     32 C25         2.2114    3.3428    9.8557 C.ar      1 <0>        -0.2289
     33 O2          3.4031    3.6153   11.8948 O.3       1 <0>        -0.3062
     34 C26         2.1812    3.2848   12.5580 C.3       1 <0>         0.0220
     35 N7          5.7247    4.2447   10.5099 N.pl3     1 <0>        -0.6623
     36 C27         6.6862    3.1860   10.8545 C.3       1 <0>         0.1210
     37 C28         8.0788    3.6244   10.3892 C.3       1 <0>        -0.0236
     38 N8          8.3938    4.9391   10.9621 N.4       1 <0>        -0.3823
     39 C29         7.4659    5.9488   10.4371 C.3       1 <0>        -0.0233
     40 C30         6.0457    5.6264   10.8998 C.3       1 <0>         0.1207
     41 C31         9.7701    5.3093   10.6061 C.3       1 <0>        -0.0467
     42 C32        -0.3534   -2.5340    2.2282 C.3       1 <0>        -0.1158
     43 H1          1.4981    2.0610   -0.0075 H         1 <0>         0.0753
     44 H2          0.0438    2.2962   -1.0065 H         1 <0>         0.0780
     45 H3         -0.0936    2.2461    0.7674 H         1 <0>         0.0551
     46 H4          0.3862    0.2578   -2.2827 H         1 <0>         0.1330
     47 H5          0.0581   -2.1794   -2.3787 H         1 <0>         0.1327
     48 H6         -0.2818   -3.4626   -0.3063 H         1 <0>         0.1331
     49 H7          3.3027    0.9810    4.6162 H         1 <0>         0.2009
     50 H8         -2.6033    2.7785    6.0909 H         1 <0>         0.1345
     51 H9         -5.0324    3.1361    5.9782 H         1 <0>         0.1381
     52 H10        -6.3198    2.3278    4.0452 H         1 <0>         0.1398
     53 H11        -5.1908    1.1785    2.1928 H         1 <0>         0.1408
     54 H12         0.1540    3.3103    8.1560 H         1 <0>         0.4310
     55 H13         3.3318    3.6814    6.6810 H         1 <0>         0.1425
     56 H14         5.4122    4.2060    7.8860 H         1 <0>         0.1323
     57 H15         1.3130    3.1034   10.4052 H         1 <0>         0.1379
     58 H16         2.3356    3.3076   13.6368 H         1 <0>         0.1048
     59 H17         1.4128    4.0083   12.2856 H         1 <0>         0.0591
     60 H18         1.8632    2.2865   12.2574 H         1 <0>         0.0588
     61 H19         6.6918    3.0335   11.9338 H         1 <0>         0.0774
     62 H20         6.4069    2.2599   10.3522 H         1 <0>         0.1144
     63 H21         8.8188    2.8963   10.7215 H         1 <0>         0.1355
     64 H22         8.0949    3.6887    9.3013 H         1 <0>         0.1297
     65 H23         7.7544    6.9336   10.8046 H         1 <0>         0.1356
     66 H24         7.5006    5.9428    9.3477 H         1 <0>         0.1293
     67 H25         5.3431    6.3129   10.4274 H         1 <0>         0.1139
     68 H26         5.9855    5.7245   11.9837 H         1 <0>         0.0770
     69 H27         9.8656    5.3527    9.5212 H         1 <0>         0.1204
     70 H28        10.0053    6.2852   11.0308 H         1 <0>         0.1231
     71 H29        10.4607    4.5647   11.0022 H         1 <0>         0.1233
     72 H30         0.6112   -2.8639    2.6140 H         1 <0>         0.0754
     73 H31        -0.8451   -1.9042    2.9695 H         1 <0>         0.0552
     74 H32        -0.9772   -3.4028    2.0184 H         1 <0>         0.0781
     75 H33         8.3089    4.8961   11.9666 H         1 <0>         0.4240
@<TRIPOS>BOND
     1    1    2 1
     2    1   43 1
     3    1   44 1
     4    1   45 1
     5    2    7 ar
     6    2    3 ar
     7    3    4 ar
     8    3   46 1
     9    4    5 ar
    10    4   47 1
    11    5    6 ar
    12    5   48 1
    13    6    7 ar
    14    6   42 1
    15    7    8 1
    16    8   18 1
    17    8    9 am
    18    9   10 2
    19    9   11 1
    20   11   16 ar
    21   11   12 ar
    22   12   13 ar
    23   12   49 1
    24   13   14 ar
    25   14   15 ar
    26   14   26 1
    27   15   16 ar
    28   16   17 1
    29   17   21 1
    30   17   18 1
    31   18   19 2
    32   19   20 1
    33   20   25 ar
    34   20   21 ar
    35   21   22 ar
    36   22   23 ar
    37   22   50 1
    38   23   24 ar
    39   23   51 1
    40   24   25 ar
    41   24   52 1
    42   25   53 1
    43   26   27 1
    44   26   54 1
    45   27   32 ar
    46   27   28 ar
    47   28   29 ar
    48   28   55 1
    49   29   30 ar
    50   29   56 1
    51   30   31 ar
    52   30   35 1
    53   31   32 ar
    54   31   33 1
    55   32   57 1
    56   33   34 1
    57   34   58 1
    58   34   59 1
    59   34   60 1
    60   35   40 1
    61   35   36 1
    62   36   37 1
    63   36   61 1
    64   36   62 1
    65   37   38 1
    66   37   63 1
    67   37   64 1
    68   38   39 1
    69   38   41 1
    70   38   75 1
    71   39   40 1
    72   39   65 1
    73   39   66 1
    74   40   67 1
    75   40   68 1
    76   41   69 1
    77   41   70 1
    78   41   71 1
    79   42   72 1
    80   42   73 1
    81   42   74 1
@<TRIPOS>MOLECULE
CHEMBL403522__1
   74    80     0     0     0
SMALL
USER_CHARGES

@<TRIPOS>ATOM
      1 C1          0.4341    1.8413   -0.0961 C.3       1 <0>        -0.1160
      2 C2          0.2324    0.3490   -0.1538 C.ar      1 <0>        -0.0492
      3 C3          0.2379   -0.3027   -1.3715 C.ar      1 <0>        -0.1194
      4 C4          0.0534   -1.6721   -1.4253 C.ar      1 <0>        -0.0901
      5 C5         -0.1376   -2.3933   -0.2609 C.ar      1 <0>        -0.1194
      6 C6         -0.1446   -1.7474    0.9598 C.ar      1 <0>        -0.0492
      7 C7          0.0466   -0.3731    1.0177 C.ar      1 <0>         0.1159
      8 N1          0.0458    0.2840    2.2543 N.am      1 <0>        -0.4647
      9 C8          1.2075    0.4393    2.9214 C.2       1 <0>         0.5884
     10 O1          2.2501    0.0154    2.4596 O.2       1 <0>        -0.4756
     11 C9          1.1881    1.1310    4.2161 C.ar      1 <0>        -0.3337
     12 C10         2.3446    1.3333    4.9689 C.ar      1 <0>         0.2965
     13 N2          2.2399    1.9665    6.1252 N.ar      1 <0>        -0.5578
     14 C11         1.0651    2.4021    6.5653 C.ar      1 <0>         0.6173
     15 N3         -0.0587    2.2308    5.8813 N.ar      1 <0>        -0.5818
     16 C12        -0.0416    1.6066    4.7138 C.ar      1 <0>         0.4870
     17 N4         -1.1920    1.4097    3.9732 N.pl3     1 <0>        -0.4377
     18 C13        -1.1461    0.7664    2.7656 C.2       1 <0>         0.5209
     19 N5         -2.3580    0.7104    2.2567 N.2       1 <0>        -0.4687
     20 C14        -3.2404    1.3117    3.0938 C.ar      1 <0>         0.0829
     21 C15        -2.5131    1.7618    4.2077 C.ar      1 <0>         0.0506
     22 C16        -3.1630    2.4218    5.2388 C.ar      1 <0>        -0.0807
     23 C17        -4.5269    2.6217    5.1742 C.ar      1 <0>        -0.1058
     24 C18        -5.2527    2.1660    4.0840 C.ar      1 <0>        -0.1056
     25 C19        -4.6200    1.5277    3.0405 C.ar      1 <0>        -0.0703
     26 N6          1.0111    3.0568    7.7793 N.pl3     1 <0>        -0.6185
     27 C20         2.1942    3.3550    8.4673 C.ar      1 <0>         0.1856
     28 C21         3.3476    3.6683    7.7608 C.ar      1 <0>        -0.1369
     29 C22         4.5160    3.9629    8.4374 C.ar      1 <0>        -0.0672
     30 C23         4.5387    3.9462    9.8240 C.ar      1 <0>         0.1326
     31 C24         3.3827    3.6322   10.5350 C.ar      1 <0>         0.1423
     32 C25         2.2114    3.3428    9.8557 C.ar      1 <0>        -0.2268
     33 O2          3.4031    3.6153   11.8948 O.3       1 <0>        -0.2984
     34 C26         2.1812    3.2848   12.5580 C.3       1 <0>         0.0239
     35 N7          5.7247    4.2447   10.5099 N.pl3     1 <0>        -0.6676
     36 C27         6.6850    3.1852   10.8539 C.3       1 <0>         0.1528
     37 C28         8.0754    3.6132   10.3722 C.3       1 <0>         0.0395
     38 N8          8.3922    4.9398   10.9179 N.3       1 <0>        -0.5409
     39 C29         7.4570    5.9578   10.4208 C.3       1 <0>         0.0394
     40 C30         6.0443    5.6266   10.8991 C.3       1 <0>         0.1529
     41 C31         9.7820    5.3125   10.6222 C.3       1 <0>         0.0247
     42 C32        -0.3534   -2.5340    2.2282 C.3       1 <0>        -0.1160
     43 H1          1.4981    2.0610   -0.0075 H         1 <0>         0.0761
     44 H2          0.0438    2.2962   -1.0065 H         1 <0>         0.0769
     45 H3         -0.0936    2.2461    0.7674 H         1 <0>         0.0561
     46 H4          0.3862    0.2578   -2.2827 H         1 <0>         0.1320
     47 H5          0.0581   -2.1794   -2.3787 H         1 <0>         0.1312
     48 H6         -0.2818   -3.4626   -0.3063 H         1 <0>         0.1320
     49 H7          3.3027    0.9810    4.6162 H         1 <0>         0.1999
     50 H8         -2.6033    2.7785    6.0909 H         1 <0>         0.1357
     51 H9         -5.0324    3.1361    5.9782 H         1 <0>         0.1371
     52 H10        -6.3198    2.3278    4.0452 H         1 <0>         0.1377
     53 H11        -5.1908    1.1785    2.1928 H         1 <0>         0.1387
     54 H12         0.1540    3.3103    8.1560 H         1 <0>         0.4280
     55 H13         3.3318    3.6814    6.6810 H         1 <0>         0.1367
     56 H14         5.4122    4.2060    7.8860 H         1 <0>         0.1319
     57 H15         1.3130    3.1034   10.4052 H         1 <0>         0.1325
     58 H16         2.3356    3.3076   13.6368 H         1 <0>         0.1010
     59 H17         1.4128    4.0083   12.2856 H         1 <0>         0.0542
     60 H18         1.8632    2.2865   12.2574 H         1 <0>         0.0539
     61 H19         6.7001    3.0412   11.9342 H         1 <0>         0.0582
     62 H20         6.3970    2.2562   10.3618 H         1 <0>         0.0704
     63 H21         8.8172    2.8921   10.7154 H         1 <0>         0.0794
     64 H22         8.0858    3.6560    9.2831 H         1 <0>         0.0349
     65 H23         7.7504    6.9370   10.7993 H         1 <0>         0.0796
     66 H24         7.4761    5.9679    9.3310 H         1 <0>         0.0341
     67 H25         5.3328    6.3110   10.4369 H         1 <0>         0.0696
     68 H26         5.9965    5.7219   11.9839 H         1 <0>         0.0579
     69 H27         9.9306    5.3341    9.5426 H         1 <0>         0.0238
     70 H28         9.9900    6.2986   11.0375 H         1 <0>         0.0681
     71 H29        10.4568    4.5812   11.0672 H         1 <0>         0.0685
     72 H30         0.6112   -2.8639    2.6140 H         1 <0>         0.0759
     73 H31        -0.8451   -1.9042    2.9695 H         1 <0>         0.0562
     74 H32        -0.9772   -3.4028    2.0184 H         1 <0>         0.0769
@<TRIPOS>BOND
     1    1    2 1
     2    1   43 1
     3    1   44 1
     4    1   45 1
     5    2    7 ar
     6    2    3 ar
     7    3    4 ar
     8    3   46 1
     9    4    5 ar
    10    4   47 1
    11    5    6 ar
    12    5   48 1
    13    6    7 ar
    14    6   42 1
    15    7    8 1
    16    8   18 1
    17    8    9 am
    18    9   10 2
    19    9   11 1
    20   11   16 ar
    21   11   12 ar
    22   12   13 ar
    23   12   49 1
    24   13   14 ar
    25   14   15 ar
    26   14   26 1
    27   15   16 ar
    28   16   17 1
    29   17   21 1
    30   17   18 1
    31   18   19 2
    32   19   20 1
    33   20   25 ar
    34   20   21 ar
    35   21   22 ar
    36   22   23 ar
    37   22   50 1
    38   23   24 ar
    39   23   51 1
    40   24   25 ar
    41   24   52 1
    42   25   53 1
    43   26   27 1
    44   26   54 1
    45   27   32 ar
    46   27   28 ar
    47   28   29 ar
    48   28   55 1
    49   29   30 ar
    50   29   56 1
    51   30   31 ar
    52   30   35 1
    53   31   32 ar
    54   31   33 1
    55   32   57 1
    56   33   34 1
    57   34   58 1
    58   34   59 1
    59   34   60 1
    60   35   40 1
    61   35   36 1
    62   36   37 1
    63   36   61 1
    64   36   62 1
    65   37   38 1
    66   37   63 1
    67   37   64 1
    68   38   39 1
    69   38   41 1
    70   39   40 1
    71   39   65 1
    72   39   66 1
    73   40   67 1
    74   40   68 1
    75   41   69 1
    76   41   70 1
    77   41   71 1
    78   42   72 1
    79   42   73 1
    80   42   74 1
@<TRIPOS>MOLECULE
CHEMBL45693
   71    76     0     0     0
SMALL
USER_CHARGES

@<TRIPOS>ATOM
      1 C1          0.0293    1.4691   -3.0514 C.3       1 <0>        -0.0458
      2 N1         -0.0518    0.0155   -2.8549 N.4       1 <0>        -0.3885
      3 C2         -1.4427   -0.3633   -2.5733 C.3       1 <0>        -0.0021
      4 C3         -1.5309   -1.8797   -2.3871 C.3       1 <0>         0.0200
      5 N2         -0.6598   -2.2853   -1.2750 N.3       1 <0>        -0.5346
      6 C4          0.7325   -1.8902   -1.5316 C.3       1 <0>         0.0193
      7 C5          0.8019   -0.3738   -1.7248 C.3       1 <0>        -0.0021
      8 C6         -0.7600   -3.7298   -1.0275 C.3       1 <0>         0.0857
      9 C7         -2.2051   -4.0876   -0.6744 C.3       1 <0>        -0.1099
     10 C8         -2.3096   -5.5921   -0.4166 C.3       1 <0>        -0.1274
     11 C9         -1.3908   -5.9755    0.7452 C.3       1 <0>         0.1733
     12 C10         0.0543   -5.6177    0.3921 C.3       1 <0>        -0.1272
     13 C11         0.1587   -4.1132    0.1343 C.3       1 <0>        -0.1114
     14 N3         -1.4908   -7.4161    0.9920 N.pl3     1 <0>        -0.3763
     15 C12        -1.9022   -7.9886    2.1594 C.ar      1 <0>         0.3788
     16 C13        -1.8508   -9.3822    1.9720 C.ar      1 <0>        -0.3244
     17 C14        -1.3777   -9.5992    0.6045 C.2       1 <0>         0.1673
     18 N4         -1.1849   -8.4179    0.0647 N.2       1 <0>        -0.2312
     19 C15        -1.1622  -10.9089   -0.0515 C.ar      1 <0>         0.0031
     20 C16        -2.1155  -11.9208    0.0809 C.ar      1 <0>        -0.1220
     21 C17        -1.9168  -13.1340   -0.5257 C.ar      1 <0>        -0.0735
     22 C18        -0.7590  -13.3580   -1.2778 C.ar      1 <0>        -0.1425
     23 C19         0.1948  -12.3436   -1.4101 C.ar      1 <0>        -0.0562
     24 C20        -0.0086  -11.1294   -0.8069 C.ar      1 <0>        -0.0934
     25 C21        -0.5438  -14.6635   -1.9307 C.2       1 <0>         0.4368
     26 O1          0.5816  -15.0190   -2.2225 O.2       1 <0>        -0.4383
     27 C22        -1.6961  -15.5387   -2.2300 C.ar      1 <0>        -0.1641
     28 C23        -2.9742  -14.9929   -2.3694 C.ar      1 <0>        -0.0831
     29 C24        -4.0452  -15.8158   -2.6487 C.ar      1 <0>        -0.1302
     30 C25        -3.8559  -17.1793   -2.7903 C.ar      1 <0>        -0.0862
     31 C26        -2.5923  -17.7269   -2.6535 C.ar      1 <0>        -0.1274
     32 C27        -1.5113  -16.9150   -2.3804 C.ar      1 <0>        -0.0612
     33 C28        -2.2288  -10.2171    3.0361 C.ar      1 <0>         0.5204
     34 N5         -2.6188   -9.6513    4.1743 N.ar      1 <0>        -0.6012
     35 C29        -2.6518   -8.3374    4.3066 C.ar      1 <0>         0.3916
     36 N6         -2.3075   -7.5171    3.3381 N.ar      1 <0>        -0.5774
     37 N7         -2.1968  -11.5919    2.9034 N.pl3     1 <0>        -0.8257
     38 H1          1.0612    1.7503   -3.2617 H         1 <0>         0.1241
     39 H2         -0.6042    1.7582   -3.8900 H         1 <0>         0.1240
     40 H3         -0.3090    1.9772   -2.1484 H         1 <0>         0.1232
     41 H4         -1.7778    0.1345   -1.6634 H         1 <0>         0.1380
     42 H5         -2.0772   -0.0622   -3.4069 H         1 <0>         0.1354
     43 H6         -2.5603   -2.1594   -2.1634 H         1 <0>         0.1266
     44 H7         -1.2088   -2.3777   -3.3016 H         1 <0>         0.0606
     45 H8          1.3542   -2.1777   -0.6837 H         1 <0>         0.1273
     46 H9          1.0918   -2.3885   -2.4320 H         1 <0>         0.0607
     47 H10         1.8316   -0.0804   -1.9294 H         1 <0>         0.1354
     48 H11         0.4554    0.1241   -0.8193 H         1 <0>         0.1379
     49 H12        -0.4595   -4.2736   -1.9231 H         1 <0>         0.0571
     50 H13        -2.5056   -3.5438    0.2212 H         1 <0>         0.0824
     51 H14        -2.8597   -3.8145   -1.5021 H         1 <0>         0.0721
     52 H15        -3.3391   -5.8470   -0.1651 H         1 <0>         0.0766
     53 H16        -2.0090   -6.1359   -1.3122 H         1 <0>         0.0787
     54 H17        -1.6913   -5.4317    1.6407 H         1 <0>         0.1131
     55 H18         0.7088   -5.8908    1.2198 H         1 <0>         0.0767
     56 H19         0.3548   -6.1615   -0.5035 H         1 <0>         0.0788
     57 H20         1.1882   -3.8582   -0.1172 H         1 <0>         0.0726
     58 H21        -0.1418   -3.5694    1.0299 H         1 <0>         0.0826
     59 H22        -3.0094  -11.7476    0.6617 H         1 <0>         0.1398
     60 H23        -2.6539  -13.9167   -0.4225 H         1 <0>         0.1466
     61 H24         1.0891  -12.5154   -1.9906 H         1 <0>         0.1421
     62 H25         0.7257  -10.3445   -0.9125 H         1 <0>         0.1364
     63 H26        -3.1235  -13.9291   -2.2583 H         1 <0>         0.1341
     64 H27        -5.0340  -15.3951   -2.7567 H         1 <0>         0.1310
     65 H28        -4.6982  -17.8192   -3.0083 H         1 <0>         0.1301
     66 H29        -2.4517  -18.7919   -2.7650 H         1 <0>         0.1325
     67 H30        -0.5250  -17.3430   -2.2783 H         1 <0>         0.1338
     68 H31        -2.9750   -7.9197    5.2487 H         1 <0>         0.2071
     69 H32        -1.7329  -11.9961    2.1535 H         1 <0>         0.4138
     70 H33        -2.6382  -12.1530    3.5601 H         1 <0>         0.4136
     71 H34         0.2618   -0.4547   -3.6907 H         1 <0>         0.4222
@<TRIPOS>BOND
     1    1    2 1
     2    1   38 1
     3    1   39 1
     4    1   40 1
     5    2    7 1
     6    2    3 1
     7    2   71 1
     8    3    4 1
     9    3   41 1
    10    3   42 1
    11    4    5 1
    12    4   43 1
    13    4   44 1
    14    5    6 1
    15    5    8 1
    16    6    7 1
    17    6   45 1
    18    6   46 1
    19    7   47 1
    20    7   48 1
    21    8   13 1
    22    8    9 1
    23    8   49 1
    24    9   10 1
    25    9   50 1
    26    9   51 1
    27   10   11 1
    28   10   52 1
    29   10   53 1
    30   11   12 1
    31   11   14 1
    32   11   54 1
    33   12   13 1
    34   12   55 1
    35   12   56 1
    36   13   57 1
    37   13   58 1
    38   14   18 1
    39   14   15 1
    40   15   36 ar
    41   15   16 ar
    42   16   17 1
    43   16   33 ar
    44   17   18 2
    45   17   19 1
    46   19   24 ar
    47   19   20 ar
    48   20   21 ar
    49   20   59 1
    50   21   22 ar
    51   21   60 1
    52   22   23 ar
    53   22   25 1
    54   23   24 ar
    55   23   61 1
    56   24   62 1
    57   25   26 2
    58   25   27 1
    59   27   32 ar
    60   27   28 ar
    61   28   29 ar
    62   28   63 1
    63   29   30 ar
    64   29   64 1
    65   30   31 ar
    66   30   65 1
    67   31   32 ar
    68   31   66 1
    69   32   67 1
    70   33   34 ar
    71   33   37 1
    72   34   35 ar
    73   35   36 ar
    74   35   68 1
    75   37   69 1
    76   37   70 1
@<TRIPOS>MOLECULE
CHEMBL45693__1
   71    76     0     0     0
SMALL
USER_CHARGES

@<TRIPOS>ATOM
      1 C1          0.1818    1.6431   -3.0371 C.3       1 <0>         0.0194
      2 N1          0.1030    0.1896   -2.8395 N.3       1 <0>        -0.5434
      3 C2         -1.2883   -0.2401   -2.6397 C.3       1 <0>         0.0253
      4 C3         -1.3332   -1.7631   -2.4976 C.3       1 <0>        -0.0066
      5 N2         -0.5071   -2.1729   -1.3543 N.4       1 <0>        -0.3837
      6 C4          0.8839   -1.7585   -1.5795 C.3       1 <0>        -0.0067
      7 C5          0.9473   -0.2355   -1.7140 C.3       1 <0>         0.0254
      8 C6         -0.5650   -3.6333   -1.2072 C.3       1 <0>         0.0236
      9 C7         -2.0137   -4.0651   -0.9707 C.3       1 <0>        -0.1364
     10 C8         -2.0739   -5.5862   -0.8175 C.3       1 <0>        -0.1259
     11 C9         -1.2136   -6.0134    0.3734 C.3       1 <0>         0.1708
     12 C10         0.2351   -5.5816    0.1369 C.3       1 <0>        -0.1259
     13 C11         0.2953   -4.0605   -0.0163 C.3       1 <0>        -0.1365
     14 N3         -1.2713   -7.4698    0.5201 N.pl3     1 <0>        -0.3820
     15 C12        -1.7304   -8.1332    1.6197 C.ar      1 <0>         0.3804
     16 C13        -1.6124   -9.5086    1.3465 C.ar      1 <0>        -0.3245
     17 C14        -1.0482   -9.6169    0.0008 C.2       1 <0>         0.1772
     18 N4         -0.8697   -8.3960   -0.4484 N.2       1 <0>        -0.2354
     19 C15        -0.7411  -10.8714   -0.7231 C.ar      1 <0>        -0.0024
     20 C16        -1.6598  -11.9231   -0.7171 C.ar      1 <0>        -0.1213
     21 C17        -1.3764  -13.0853   -1.3866 C.ar      1 <0>        -0.0734
     22 C18        -0.1667  -13.2173   -2.0763 C.ar      1 <0>        -0.1393
     23 C19         0.7524  -12.1630   -2.0819 C.ar      1 <0>        -0.0563
     24 C20         0.4645  -10.9998   -1.4160 C.ar      1 <0>        -0.0919
     25 C21         0.1397  -14.4677   -2.7968 C.2       1 <0>         0.4361
     26 O1          1.2941  -14.7628   -3.0386 O.2       1 <0>        -0.4368
     27 C22        -0.9565  -15.3615   -3.2246 C.ar      1 <0>        -0.1648
     28 C23        -2.2443  -14.8534   -3.4098 C.ar      1 <0>        -0.0835
     29 C24        -3.2627  -15.6934   -3.8092 C.ar      1 <0>        -0.1301
     30 C25        -3.0111  -17.0368   -4.0260 C.ar      1 <0>        -0.0856
     31 C26        -1.7375  -17.5470   -3.8445 C.ar      1 <0>        -0.1269
     32 C27        -0.7083  -16.7172   -3.4513 C.ar      1 <0>        -0.0608
     33 C28        -2.0215  -10.4255    2.3285 C.ar      1 <0>         0.5220
     34 N5         -2.5025   -9.9512    3.4736 N.ar      1 <0>        -0.5990
     35 C29        -2.5957   -8.6510    3.6878 C.ar      1 <0>         0.3947
     36 N6         -2.2255   -7.7562    2.7980 N.ar      1 <0>        -0.5804
     37 N7         -1.9268  -11.7864    2.1098 N.pl3     1 <0>        -0.8238
     38 H1          1.2133    1.9257   -3.2477 H         1 <0>         0.0844
     39 H2         -0.4522    1.9306   -3.8759 H         1 <0>         0.0840
     40 H3         -0.1571    2.1514   -2.1345 H         1 <0>         0.0396
     41 H4         -1.6852    0.2214   -1.7356 H         1 <0>         0.0605
     42 H5         -1.8892    0.0630   -3.4971 H         1 <0>         0.1239
     43 H6         -2.3625   -2.0826   -2.3352 H         1 <0>         0.1373
     44 H7         -0.9489   -2.2244   -3.4073 H         1 <0>         0.1382
     45 H8          1.4983   -2.0746   -0.7364 H         1 <0>         0.1374
     46 H9          1.2569   -2.2198   -2.4939 H         1 <0>         0.1383
     47 H10         1.9773    0.0710   -1.8960 H         1 <0>         0.1239
     48 H11         0.5872    0.2261   -0.7946 H         1 <0>         0.0605
     49 H12        -0.1889   -4.1051   -2.1149 H         1 <0>         0.1419
     50 H13        -2.3898   -3.5933   -0.0629 H         1 <0>         0.0917
     51 H14        -2.6266   -3.7608   -1.8191 H         1 <0>         0.0968
     52 H15        -3.1060   -5.8938   -0.6490 H         1 <0>         0.0904
     53 H16        -1.6978   -6.0580   -1.7253 H         1 <0>         0.0902
     54 H17        -1.5897   -5.5416    1.2812 H         1 <0>         0.1154
     55 H18         0.8480   -5.8859    0.9853 H         1 <0>         0.0906
     56 H19         0.6112   -6.0534   -0.7709 H         1 <0>         0.0901
     57 H20         1.3274   -3.7529   -0.1848 H         1 <0>         0.0969
     58 H21        -0.0808   -3.5887    0.8915 H         1 <0>         0.0918
     59 H22        -2.5938  -11.8209   -0.1845 H         1 <0>         0.1397
     60 H23        -2.0867  -13.8988   -1.3812 H         1 <0>         0.1474
     61 H24         1.6867  -12.2637   -2.6141 H         1 <0>         0.1430
     62 H25         1.1721  -10.1840   -1.4239 H         1 <0>         0.1365
     63 H26        -2.4422  -13.8053   -3.2402 H         1 <0>         0.1336
     64 H27        -4.2590  -15.3019   -3.9527 H         1 <0>         0.1311
     65 H28        -3.8124  -17.6902   -4.3379 H         1 <0>         0.1305
     66 H29        -1.5482  -18.5965   -4.0151 H         1 <0>         0.1328
     67 H30         0.2861  -17.1158   -3.3143 H         1 <0>         0.1341
     68 H31        -2.9923   -8.3089    4.6323 H         1 <0>         0.2082
     69 H32        -1.4022  -12.1229    1.3665 H         1 <0>         0.4146
     70 H33        -2.3850  -12.4054    2.6995 H         1 <0>         0.4149
     71 H34        -0.8560   -1.7365   -0.5140 H         1 <0>         0.4186
@<TRIPOS>BOND
     1    1    2 1
     2    1   38 1
     3    1   39 1
     4    1   40 1
     5    2    7 1
     6    2    3 1
     7    3    4 1
     8    3   41 1
     9    3   42 1
    10    4    5 1
    11    4   43 1
    12    4   44 1
    13    5    6 1
    14    5    8 1
    15    5   71 1
    16    6    7 1
    17    6   45 1
    18    6   46 1
    19    7   47 1
    20    7   48 1
    21    8   13 1
    22    8    9 1
    23    8   49 1
    24    9   10 1
    25    9   50 1
    26    9   51 1
    27   10   11 1
    28   10   52 1
    29   10   53 1
    30   11   12 1
    31   11   14 1
    32   11   54 1
    33   12   13 1
    34   12   55 1
    35   12   56 1
    36   13   57 1
    37   13   58 1
    38   14   18 1
    39   14   15 1
    40   15   36 ar
    41   15   16 ar
    42   16   17 1
    43   16   33 ar
    44   17   18 2
    45   17   19 1
    46   19   24 ar
    47   19   20 ar
    48   20   21 ar
    49   20   59 1
    50   21   22 ar
    51   21   60 1
    52   22   23 ar
    53   22   25 1
    54   23   24 ar
    55   23   61 1
    56   24   62 1
    57   25   26 2
    58   25   27 1
    59   27   32 ar
    60   27   28 ar
    61   28   29 ar
    62   28   63 1
    63   29   30 ar
    64   29   64 1
    65   30   31 ar
    66   30   65 1
    67   31   32 ar
    68   31   66 1
    69   32   67 1
    70   33   34 ar
    71   33   37 1
    72   34   35 ar
    73   35   36 ar
    74   35   68 1
    75   37   69 1
    76   37   70 1
@<TRIPOS>MOLECULE
CHEMBL297278
   50    54     0     0     0
SMALL
USER_CHARGES

@<TRIPOS>ATOM
      1 C1          3.3370    1.3633    3.5653 C.ar      1 <0>        -0.1487
      2 C2          3.4192   -0.0168    3.5450 C.ar      1 <0>        -0.0837
      3 C3          3.5025   -0.6873    2.3401 C.ar      1 <0>        -0.1965
      4 C4          3.5032    0.0255    1.1495 C.ar      1 <0>         0.1185
      5 C5          3.4202    1.4104    1.1728 C.ar      1 <0>        -0.1423
      6 C6          3.3375    2.0760    2.3804 C.ar      1 <0>        -0.0789
      7 O1          3.5855   -0.6316   -0.0370 O.3       1 <0>        -0.2599
      8 C7          3.6573   -1.9885   -0.0113 C.ar      1 <0>         0.0964
      9 C8          2.4934   -2.7445   -0.0465 C.ar      1 <0>        -0.1168
     10 C9          2.5628   -4.1217   -0.0205 C.ar      1 <0>        -0.0910
     11 C10         3.8037   -4.7546    0.0407 C.ar      1 <0>        -0.0275
     12 C11         4.9707   -3.9925    0.0755 C.ar      1 <0>        -0.1094
     13 C12         4.8946   -2.6157    0.0443 C.ar      1 <0>        -0.1162
     14 C13         3.8820   -6.2349    0.0693 C.2       1 <0>        -0.0569
     15 C14         3.1900   -7.0680    0.8846 C.2       1 <0>         0.0175
     16 N1          3.5310   -8.3656    0.6127 N.pl3     1 <0>        -0.4641
     17 C15         4.4590   -8.4116   -0.3923 C.ar      1 <0>         0.3601
     18 C16         4.7196   -7.0869   -0.7844 C.ar      1 <0>        -0.2605
     19 C17         5.6424   -6.8580   -1.8136 C.ar      1 <0>         0.5016
     20 N2          6.2315   -7.9083   -2.3789 N.ar      1 <0>        -0.5926
     21 C18         5.9559   -9.1375   -1.9825 C.ar      1 <0>         0.3814
     22 N3          5.1023   -9.3977   -1.0159 N.ar      1 <0>        -0.5787
     23 N4          5.9333   -5.5718   -2.2318 N.pl3     1 <0>        -0.8236
     24 C19         2.9816   -9.5372    1.2994 C.3       1 <0>         0.1275
     25 C20         1.4385   -9.5400    1.2050 C.3       1 <0>        -0.1604
     26 C21         1.0065  -10.0402    2.6063 C.3       1 <0>        -0.0011
     27 N5          1.9952   -9.4038    3.5140 N.4       1 <0>        -0.5165
     28 C22         3.2922   -9.4681    2.8061 C.3       1 <0>        -0.0227
     29 H1          3.2678    1.8854    4.5083 H         1 <0>         0.1278
     30 H2          3.4186   -0.5710    4.4719 H         1 <0>         0.1253
     31 H3          3.5673   -1.7652    2.3248 H         1 <0>         0.1243
     32 H4          3.4209    1.9675    0.2475 H         1 <0>         0.1349
     33 H5          3.2732    3.1539    2.3991 H         1 <0>         0.1348
     34 H6          1.5325   -2.2536   -0.0939 H         1 <0>         0.1385
     35 H7          1.6570   -4.7092   -0.0472 H         1 <0>         0.1328
     36 H8          5.9333   -4.4797    0.1229 H         1 <0>         0.1345
     37 H9          5.7983   -2.0248    0.0675 H         1 <0>         0.1398
     38 H10         2.4781   -6.7556    1.6344 H         1 <0>         0.1761
     39 H11         6.4563   -9.9625   -2.4676 H         1 <0>         0.2067
     40 H12         5.4964   -4.8146   -1.8115 H         1 <0>         0.4133
     41 H13         6.5741   -5.4271   -2.9455 H         1 <0>         0.4138
     42 H14         3.3900  -10.4523    0.8705 H         1 <0>         0.1492
     43 H15         1.0615   -8.5338    1.0214 H         1 <0>         0.1085
     44 H16         1.1008  -10.2271    0.4291 H         1 <0>         0.1299
     45 H17        -0.0033   -9.7034    2.8405 H         1 <0>         0.1460
     46 H18         1.0741  -11.1265    2.6647 H         1 <0>         0.1440
     47 H19         1.7405   -8.4430    3.6871 H         1 <0>         0.4320
     48 H20         3.8393  -10.3592    3.1137 H         1 <0>         0.1516
     49 H21         3.8786   -8.5754    3.0238 H         1 <0>         0.1422
     50 H22         2.0476   -9.9133    4.3833 H         1 <0>         0.4392
@<TRIPOS>BOND
     1    1    6 ar
     2    1    2 ar
     3    1   29 1
     4    2    3 ar
     5    2   30 1
     6    3    4 ar
     7    3   31 1
     8    4    5 ar
     9    4    7 1
    10    5    6 ar
    11    5   32 1
    12    6   33 1
    13    7    8 1
    14    8   13 ar
    15    8    9 ar
    16    9   10 ar
    17    9   34 1
    18   10   11 ar
    19   10   35 1
    20   11   12 ar
    21   11   14 1
    22   12   13 ar
    23   12   36 1
    24   13   37 1
    25   14   18 1
    26   14   15 2
    27   15   16 1
    28   15   38 1
    29   16   17 1
    30   16   24 1
    31   17   22 ar
    32   17   18 ar
    33   18   19 ar
    34   19   20 ar
    35   19   23 1
    36   20   21 ar
    37   21   22 ar
    38   21   39 1
    39   23   40 1
    40   23   41 1
    41   24   28 1
    42   24   25 1
    43   24   42 1
    44   25   26 1
    45   25   43 1
    46   25   44 1
    47   26   27 1
    48   26   45 1
    49   26   46 1
    50   27   28 1
    51   27   47 1
    52   27   50 1
    53   28   48 1
    54   28   49 1
@<TRIPOS>MOLECULE
CHEMBL297278__1
   50    54     0     0     0
SMALL
USER_CHARGES

@<TRIPOS>ATOM
      1 C1          3.3370    1.3633    3.5653 C.ar      1 <0>        -0.1485
      2 C2          3.4192   -0.0168    3.5450 C.ar      1 <0>        -0.0834
      3 C3          3.5025   -0.6873    2.3401 C.ar      1 <0>        -0.1964
      4 C4          3.5032    0.0255    1.1495 C.ar      1 <0>         0.1180
      5 C5          3.4202    1.4104    1.1728 C.ar      1 <0>        -0.1424
      6 C6          3.3375    2.0760    2.3804 C.ar      1 <0>        -0.0791
      7 O1          3.5855   -0.6316   -0.0370 O.3       1 <0>        -0.2600
      8 C7          3.6573   -1.9885   -0.0113 C.ar      1 <0>         0.0964
      9 C8          2.4934   -2.7445   -0.0465 C.ar      1 <0>        -0.1170
     10 C9          2.5628   -4.1217   -0.0205 C.ar      1 <0>        -0.0922
     11 C10         3.8037   -4.7546    0.0407 C.ar      1 <0>        -0.0270
     12 C11         4.9707   -3.9925    0.0755 C.ar      1 <0>        -0.1088
     13 C12         4.8946   -2.6157    0.0443 C.ar      1 <0>        -0.1154
     14 C13         3.8820   -6.2349    0.0693 C.2       1 <0>        -0.0572
     15 C14         3.1900   -7.0680    0.8846 C.2       1 <0>         0.0174
     16 N1          3.5310   -8.3656    0.6127 N.pl3     1 <0>        -0.4636
     17 C15         4.4590   -8.4116   -0.3923 C.ar      1 <0>         0.3602
     18 C16         4.7196   -7.0869   -0.7844 C.ar      1 <0>        -0.2606
     19 C17         5.6424   -6.8580   -1.8136 C.ar      1 <0>         0.5016
     20 N2          6.2315   -7.9083   -2.3789 N.ar      1 <0>        -0.5926
     21 C18         5.9559   -9.1375   -1.9825 C.ar      1 <0>         0.3815
     22 N3          5.1023   -9.3977   -1.0159 N.ar      1 <0>        -0.5785
     23 N4          5.9333   -5.5718   -2.2318 N.pl3     1 <0>        -0.8236
     24 C19         2.9816   -9.5372    1.2994 C.3       1 <0>         0.1266
     25 C20         3.1992   -9.4159    2.8252 C.3       1 <0>        -0.1591
     26 C21         1.8448   -8.8530    3.3246 C.3       1 <0>        -0.0089
     27 N5          0.8512   -9.5448    2.4641 N.4       1 <0>        -0.5146
     28 C22         1.4540   -9.5976    1.1145 C.3       1 <0>        -0.0221
     29 H1          3.2678    1.8854    4.5083 H         1 <0>         0.1279
     30 H2          3.4186   -0.5710    4.4719 H         1 <0>         0.1257
     31 H3          3.5673   -1.7652    2.3248 H         1 <0>         0.1244
     32 H4          3.4209    1.9675    0.2475 H         1 <0>         0.1347
     33 H5          3.2732    3.1539    2.3991 H         1 <0>         0.1347
     34 H6          1.5325   -2.2536   -0.0939 H         1 <0>         0.1382
     35 H7          1.6570   -4.7092   -0.0472 H         1 <0>         0.1312
     36 H8          5.9333   -4.4797    0.1229 H         1 <0>         0.1349
     37 H9          5.7983   -2.0248    0.0675 H         1 <0>         0.1401
     38 H10         2.4781   -6.7556    1.6344 H         1 <0>         0.1749
     39 H11         6.4563   -9.9625   -2.4676 H         1 <0>         0.2067
     40 H12         5.4964   -4.8146   -1.8115 H         1 <0>         0.4132
     41 H13         6.5741   -5.4271   -2.9455 H         1 <0>         0.4139
     42 H14         3.4448  -10.4485    0.9210 H         1 <0>         0.1499
     43 H15         3.3966  -10.3932    3.2655 H         1 <0>         0.1203
     44 H16         4.0101   -8.7216    3.0451 H         1 <0>         0.1271
     45 H17         1.6869   -9.1047    4.3733 H         1 <0>         0.1482
     46 H18         1.7980   -7.7743    3.1755 H         1 <0>         0.1352
     47 H19         0.6841  -10.4788    2.8073 H         1 <0>         0.4368
     48 H20         1.1174   -8.7455    0.5240 H         1 <0>         0.1415
     49 H21         1.1763  -10.5284    0.6200 H         1 <0>         0.1522
     50 H22        -0.0116   -9.0222    2.4396 H         1 <0>         0.4376
@<TRIPOS>BOND
     1    1    6 ar
     2    1    2 ar
     3    1   29 1
     4    2    3 ar
     5    2   30 1
     6    3    4 ar
     7    3   31 1
     8    4    5 ar
     9    4    7 1
    10    5    6 ar
    11    5   32 1
    12    6   33 1
    13    7    8 1
    14    8   13 ar
    15    8    9 ar
    16    9   10 ar
    17    9   34 1
    18   10   11 ar
    19   10   35 1
    20   11   12 ar
    21   11   14 1
    22   12   13 ar
    23   12   36 1
    24   13   37 1
    25   14   18 1
    26   14   15 2
    27   15   16 1
    28   15   38 1
    29   16   17 1
    30   16   24 1
    31   17   22 ar
    32   17   18 ar
    33   18   19 ar
    34   19   20 ar
    35   19   23 1
    36   20   21 ar
    37   21   22 ar
    38   21   39 1
    39   23   40 1
    40   23   41 1
    41   24   28 1
    42   24   25 1
    43   24   42 1
    44   25   26 1
    45   25   43 1
    46   25   44 1
    47   26   27 1
    48   26   45 1
    49   26   46 1
    50   27   28 1
    51   27   47 1
    52   27   50 1
    53   28   48 1
    54   28   49 1
@<TRIPOS>MOLECULE
CHEMBL1082959
   66    70     0     0     0
SMALL
USER_CHARGES

@<TRIPOS>ATOM
      1 C1          0.2216    1.0357    1.8534 C.3       1 <0>        -0.1474
      2 C2          0.1630   -0.3219    1.1504 C.3       1 <0>        -0.0954
      3 C3          1.1562   -1.2810    1.8098 C.3       1 <0>        -0.1492
      4 C4         -1.2512   -0.8946    1.2642 C.3       1 <0>         0.0876
      5 O1         -1.3370   -2.1052    0.5098 O.3       1 <0>        -0.3578
      6 C5         -2.5245   -2.7400    0.5056 C.2       1 <0>         0.6492
      7 O2         -3.4623   -2.2786    1.1256 O.2       1 <0>        -0.5497
      8 N1         -2.6730   -3.8871   -0.1861 N.am      1 <0>        -0.6519
      9 C6         -3.8779   -4.5962   -0.1153 C.ar      1 <0>         0.1615
     10 C7         -5.0817   -3.9097   -0.0149 C.ar      1 <0>        -0.1136
     11 C8         -6.2700   -4.6058    0.0550 C.ar      1 <0>        -0.0796
     12 C9         -6.2627   -5.9997    0.0248 C.ar      1 <0>        -0.0358
     13 C10        -5.0533   -6.6862   -0.0760 C.ar      1 <0>        -0.0938
     14 C11        -3.8683   -5.9851   -0.1513 C.ar      1 <0>        -0.1349
     15 C12        -7.5390   -6.7508    0.1003 C.2       1 <0>        -0.2577
     16 C13        -8.3359   -6.6903    1.2561 C.2       1 <0>         0.2351
     17 N2         -9.4656   -7.3588    1.3151 N.2       1 <0>        -0.4998
     18 C14        -9.8864   -8.1076    0.2897 C.2       1 <0>         0.3176
     19 C15       -11.0277   -8.8989    0.1075 C.2       1 <0>        -0.2137
     20 C16       -10.9438   -9.4587   -1.1733 C.2       1 <0>         0.1210
     21 N3         -9.8379   -9.0479   -1.7428 N.2       1 <0>        -0.3264
     22 N4         -9.1518   -8.2042   -0.8624 N.pl3     1 <0>        -0.3437
     23 C17        -7.9699   -7.5225   -0.9743 C.2       1 <0>         0.5026
     24 N5         -7.2203   -7.6029   -2.1249 N.pl3     1 <0>        -0.8246
     25 C18       -12.1195   -9.1053    1.0869 C.ar      1 <0>         0.0596
     26 C19       -11.8212   -9.4613    2.4029 C.ar      1 <0>        -0.1511
     27 C20       -12.8399   -9.6532    3.3139 C.ar      1 <0>        -0.0692
     28 C21       -14.1577   -9.4938    2.9278 C.ar      1 <0>        -0.2024
     29 C22       -14.4648   -9.1392    1.6193 C.ar      1 <0>         0.2194
     30 C23       -13.4474   -8.9388    0.6985 C.ar      1 <0>        -0.1900
     31 N6        -15.7978   -8.9797    1.2333 N.pl3     1 <0>        -0.6352
     32 C24       -16.1546   -8.7279   -0.1719 C.3       1 <0>         0.0876
     33 C25       -17.2469   -9.7233   -0.5792 C.3       1 <0>         0.0459
     34 O3        -18.3160   -9.6625    0.3679 O.3       1 <0>        -0.3801
     35 C26       -17.9434  -10.0382    1.6960 C.3       1 <0>         0.0456
     36 C27       -16.8872   -9.0645    2.2190 C.3       1 <0>         0.0870
     37 H1          1.2291    1.4437    1.7724 H         1 <0>         0.0677
     38 H2         -0.4859    1.7190    1.3837 H         1 <0>         0.0598
     39 H3         -0.0367    0.9117    2.9051 H         1 <0>         0.0603
     40 H4          0.4213   -0.1979    0.0987 H         1 <0>         0.0828
     41 H5          0.8979   -1.4050    2.8615 H         1 <0>         0.0559
     42 H6          1.1144   -2.2482    1.3090 H         1 <0>         0.0607
     43 H7          2.1637   -0.8730    1.7288 H         1 <0>         0.0598
     44 H8         -1.4763   -1.1016    2.3104 H         1 <0>         0.0720
     45 H9         -1.9682   -0.1720    0.8744 H         1 <0>         0.0714
     46 H10        -1.9449   -4.2213   -0.7331 H         1 <0>         0.4189
     47 H11        -5.0867   -2.8300    0.0087 H         1 <0>         0.1445
     48 H12        -7.2054   -4.0717    0.1334 H         1 <0>         0.1318
     49 H13        -5.0450   -7.7659   -0.0996 H         1 <0>         0.1293
     50 H14        -2.9315   -6.5162   -0.2342 H         1 <0>         0.1321
     51 H15        -8.0188   -6.0930    2.0982 H         1 <0>         0.1784
     52 H16       -11.6715  -10.1210   -1.6186 H         1 <0>         0.1984
     53 H17        -6.3824   -7.1188   -2.1928 H         1 <0>         0.4244
     54 H18        -7.5295   -8.1436   -2.8685 H         1 <0>         0.4172
     55 H19       -10.7929   -9.5872    2.7083 H         1 <0>         0.1166
     56 H20       -12.6068   -9.9290    4.3317 H         1 <0>         0.1205
     57 H21       -14.9509   -9.6455    3.6448 H         1 <0>         0.1192
     58 H22       -13.6836   -8.6586   -0.3174 H         1 <0>         0.1196
     59 H23       -16.5276   -7.7093   -0.2791 H         1 <0>         0.0687
     60 H24       -15.2774   -8.8665   -0.8039 H         1 <0>         0.0919
     61 H25       -17.6228   -9.4662   -1.5696 H         1 <0>         0.1039
     62 H26       -16.8327  -10.7314   -0.5966 H         1 <0>         0.0558
     63 H27       -18.8204  -10.0077    2.3426 H         1 <0>         0.1044
     64 H28       -17.5318  -11.0474    1.6869 H         1 <0>         0.0553
     65 H29       -16.4949   -9.4260    3.1695 H         1 <0>         0.0934
     66 H30       -17.3352   -8.0804    2.3566 H         1 <0>         0.0690
@<TRIPOS>BOND
     1    1    2 1
     2    1   37 1
     3    1   38 1
     4    1   39 1
     5    2    3 1
     6    2    4 1
     7    2   40 1
     8    3   41 1
     9    3   42 1
    10    3   43 1
    11    4    5 1
    12    4   44 1
    13    4   45 1
    14    5    6 1
    15    6    7 2
    16    6    8 am
    17    8    9 1
    18    8   46 1
    19    9   14 ar
    20    9   10 ar
    21   10   11 ar
    22   10   47 1
    23   11   12 ar
    24   11   48 1
    25   12   13 ar
    26   12   15 1
    27   13   14 ar
    28   13   49 1
    29   14   50 1
    30   15   23 2
    31   15   16 1
    32   16   17 2
    33   16   51 1
    34   17   18 1
    35   18   22 1
    36   18   19 2
    37   19   20 1
    38   19   25 1
    39   20   21 2
    40   20   52 1
    41   21   22 1
    42   22   23 1
    43   23   24 1
    44   24   53 1
    45   24   54 1
    46   25   30 ar
    47   25   26 ar
    48   26   27 ar
    49   26   55 1
    50   27   28 ar
    51   27   56 1
    52   28   29 ar
    53   28   57 1
    54   29   30 ar
    55   29   31 1
    56   30   58 1
    57   31   36 1
    58   31   32 1
    59   32   33 1
    60   32   59 1
    61   32   60 1
    62   33   34 1
    63   33   61 1
    64   33   62 1
    65   34   35 1
    66   35   36 1
    67   35   63 1
    68   35   64 1
    69   36   65 1
    70   36   66 1
@<TRIPOS>MOLECULE
CHEMBL48554
   48    52     0     0     0
SMALL
USER_CHARGES

@<TRIPOS>ATOM
      1 C1          3.3370    1.3633    3.5653 C.ar      1 <0>        -0.1524
      2 C2          3.4192   -0.0168    3.5450 C.ar      1 <0>        -0.0821
      3 C3          3.5025   -0.6873    2.3401 C.ar      1 <0>        -0.1943
      4 C4          3.5032    0.0255    1.1495 C.ar      1 <0>         0.1208
      5 C5          3.4202    1.4104    1.1728 C.ar      1 <0>        -0.1463
      6 C6          3.3375    2.0760    2.3804 C.ar      1 <0>        -0.0823
      7 O1          3.5855   -0.6316   -0.0370 O.3       1 <0>        -0.2597
      8 C7          3.6573   -1.9885   -0.0113 C.ar      1 <0>         0.0820
      9 C8          2.4934   -2.7445   -0.0465 C.ar      1 <0>        -0.1152
     10 C9          2.5628   -4.1217   -0.0205 C.ar      1 <0>        -0.0943
     11 C10         3.8037   -4.7546    0.0407 C.ar      1 <0>        -0.0037
     12 C11         4.9707   -3.9925    0.0755 C.ar      1 <0>        -0.1135
     13 C12         4.8946   -2.6157    0.0443 C.ar      1 <0>        -0.1164
     14 C13         3.8820   -6.2349    0.0693 C.2       1 <0>        -0.1036
     15 C14         3.1900   -7.0680    0.8846 C.2       1 <0>         0.0654
     16 N1          3.5310   -8.3656    0.6127 N.pl3     1 <0>        -0.4475
     17 C15         4.4590   -8.4116   -0.3923 C.ar      1 <0>         0.3491
     18 C16         4.7196   -7.0869   -0.7844 C.ar      1 <0>        -0.2523
     19 C17         5.6424   -6.8580   -1.8136 C.ar      1 <0>         0.4942
     20 N2          6.2315   -7.9083   -2.3789 N.ar      1 <0>        -0.5999
     21 C18         5.9559   -9.1375   -1.9825 C.ar      1 <0>         0.3649
     22 N3          5.1023   -9.3977   -1.0159 N.ar      1 <0>        -0.5711
     23 N4          5.9333   -5.5718   -2.2318 N.pl3     1 <0>        -0.8307
     24 C19         2.9816   -9.5372    1.2994 C.3       1 <0>         0.1037
     25 C20         1.4370   -9.5508    1.1965 C.3       1 <0>        -0.1660
     26 C21         1.0211  -10.0176    2.6148 C.3       1 <0>         0.0468
     27 O2          1.9859   -9.3766    3.4767 O.3       1 <0>        -0.3697
     28 C22         3.2586   -9.4544    2.8130 C.3       1 <0>         0.0372
     29 H1          3.2678    1.8854    4.5083 H         1 <0>         0.1256
     30 H2          3.4186   -0.5710    4.4719 H         1 <0>         0.1260
     31 H3          3.5673   -1.7652    2.3248 H         1 <0>         0.1278
     32 H4          3.4209    1.9675    0.2475 H         1 <0>         0.1325
     33 H5          3.2732    3.1539    2.3991 H         1 <0>         0.1317
     34 H6          1.5325   -2.2536   -0.0939 H         1 <0>         0.1354
     35 H7          1.6570   -4.7092   -0.0472 H         1 <0>         0.1342
     36 H8          5.9333   -4.4797    0.1229 H         1 <0>         0.1338
     37 H9          5.7983   -2.0248    0.0675 H         1 <0>         0.1358
     38 H10         2.4781   -6.7556    1.6344 H         1 <0>         0.1804
     39 H11         6.4563   -9.9625   -2.4676 H         1 <0>         0.2008
     40 H12         5.4964   -4.8146   -1.8115 H         1 <0>         0.4114
     41 H13         6.5741   -5.4271   -2.9455 H         1 <0>         0.4084
     42 H14         3.4017  -10.4534    0.8843 H         1 <0>         0.1250
     43 H15         1.0523   -8.5526    0.9872 H         1 <0>         0.0890
     44 H16         1.1037  -10.2612    0.4399 H         1 <0>         0.0947
     45 H17         0.0120   -9.6793    2.8498 H         1 <0>         0.1025
     46 H18         1.0927  -11.1021    2.6983 H         1 <0>         0.0697
     47 H19         3.7939  -10.3453    3.1412 H         1 <0>         0.0782
     48 H20         3.8468   -8.5637    3.0340 H         1 <0>         0.0941
@<TRIPOS>BOND
     1    1    6 ar
     2    1    2 ar
     3    1   29 1
     4    2    3 ar
     5    2   30 1
     6    3    4 ar
     7    3   31 1
     8    4    5 ar
     9    4    7 1
    10    5    6 ar
    11    5   32 1
    12    6   33 1
    13    7    8 1
    14    8   13 ar
    15    8    9 ar
    16    9   10 ar
    17    9   34 1
    18   10   11 ar
    19   10   35 1
    20   11   12 ar
    21   11   14 1
    22   12   13 ar
    23   12   36 1
    24   13   37 1
    25   14   18 1
    26   14   15 2
    27   15   16 1
    28   15   38 1
    29   16   17 1
    30   16   24 1
    31   17   22 ar
    32   17   18 ar
    33   18   19 ar
    34   19   20 ar
    35   19   23 1
    36   20   21 ar
    37   21   22 ar
    38   21   39 1
    39   23   40 1
    40   23   41 1
    41   24   28 1
    42   24   25 1
    43   24   42 1
    44   25   26 1
    45   25   43 1
    46   25   44 1
    47   26   27 1
    48   26   45 1
    49   26   46 1
    50   27   28 1
    51   28   47 1
    52   28   48 1
@<TRIPOS>MOLECULE
CHEMBL48554__1
   48    52     0     0     0
SMALL
USER_CHARGES

@<TRIPOS>ATOM
      1 C1          3.3370    1.3633    3.5653 C.ar      1 <0>        -0.1523
      2 C2          3.4192   -0.0168    3.5450 C.ar      1 <0>        -0.0822
      3 C3          3.5025   -0.6873    2.3401 C.ar      1 <0>        -0.1945
      4 C4          3.5032    0.0255    1.1495 C.ar      1 <0>         0.1208
      5 C5          3.4202    1.4104    1.1728 C.ar      1 <0>        -0.1460
      6 C6          3.3375    2.0760    2.3804 C.ar      1 <0>        -0.0821
      7 O1          3.5855   -0.6316   -0.0370 O.3       1 <0>        -0.2596
      8 C7          3.6573   -1.9885   -0.0113 C.ar      1 <0>         0.0825
      9 C8          2.4934   -2.7445   -0.0465 C.ar      1 <0>        -0.1150
     10 C9          2.5628   -4.1217   -0.0205 C.ar      1 <0>        -0.0945
     11 C10         3.8037   -4.7546    0.0407 C.ar      1 <0>        -0.0049
     12 C11         4.9707   -3.9925    0.0755 C.ar      1 <0>        -0.1132
     13 C12         4.8946   -2.6157    0.0443 C.ar      1 <0>        -0.1164
     14 C13         3.8820   -6.2349    0.0693 C.2       1 <0>        -0.1010
     15 C14         3.1900   -7.0680    0.8846 C.2       1 <0>         0.0599
     16 N1          3.5310   -8.3656    0.6127 N.pl3     1 <0>        -0.4478
     17 C15         4.4590   -8.4116   -0.3923 C.ar      1 <0>         0.3507
     18 C16         4.7196   -7.0869   -0.7844 C.ar      1 <0>        -0.2531
     19 C17         5.6424   -6.8580   -1.8136 C.ar      1 <0>         0.4947
     20 N2          6.2315   -7.9083   -2.3789 N.ar      1 <0>        -0.5998
     21 C18         5.9559   -9.1375   -1.9825 C.ar      1 <0>         0.3657
     22 N3          5.1023   -9.3977   -1.0159 N.ar      1 <0>        -0.5706
     23 N4          5.9333   -5.5718   -2.2318 N.pl3     1 <0>        -0.8306
     24 C19         2.9816   -9.5372    1.2994 C.3       1 <0>         0.1022
     25 C20         3.2085   -9.4260    2.8267 C.3       1 <0>        -0.1655
     26 C21         1.8437   -8.8805    3.3189 C.3       1 <0>         0.0424
     27 O2          0.8872   -9.5511    2.4705 O.3       1 <0>        -0.3670
     28 C22         1.4487   -9.5819    1.1476 C.3       1 <0>         0.0382
     29 H1          3.2678    1.8854    4.5083 H         1 <0>         0.1257
     30 H2          3.4186   -0.5710    4.4719 H         1 <0>         0.1258
     31 H3          3.5673   -1.7652    2.3248 H         1 <0>         0.1275
     32 H4          3.4209    1.9675    0.2475 H         1 <0>         0.1326
     33 H5          3.2732    3.1539    2.3991 H         1 <0>         0.1318
     34 H6          1.5325   -2.2536   -0.0939 H         1 <0>         0.1357
     35 H7          1.6570   -4.7092   -0.0472 H         1 <0>         0.1343
     36 H8          5.9333   -4.4797    0.1229 H         1 <0>         0.1338
     37 H9          5.7983   -2.0248    0.0675 H         1 <0>         0.1360
     38 H10         2.4781   -6.7556    1.6344 H         1 <0>         0.1774
     39 H11         6.4563   -9.9625   -2.4676 H         1 <0>         0.2011
     40 H12         5.4964   -4.8146   -1.8115 H         1 <0>         0.4113
     41 H13         6.5741   -5.4271   -2.9455 H         1 <0>         0.4085
     42 H14         3.4303  -10.4513    0.9106 H         1 <0>         0.1270
     43 H15         3.4162  -10.4037    3.2614 H         1 <0>         0.0998
     44 H16         4.0116   -8.7238    3.0505 H         1 <0>         0.0919
     45 H17         1.6799   -9.1428    4.3641 H         1 <0>         0.1032
     46 H18         1.7893   -7.8007    3.1800 H         1 <0>         0.0627
     47 H19         1.1072   -8.7164    0.5797 H         1 <0>         0.0704
     48 H20         1.1531  -10.5005    0.6407 H         1 <0>         0.1024
@<TRIPOS>BOND
     1    1    6 ar
     2    1    2 ar
     3    1   29 1
     4    2    3 ar
     5    2   30 1
     6    3    4 ar
     7    3   31 1
     8    4    5 ar
     9    4    7 1
    10    5    6 ar
    11    5   32 1
    12    6   33 1
    13    7    8 1
    14    8   13 ar
    15    8    9 ar
    16    9   10 ar
    17    9   34 1
    18   10   11 ar
    19   10   35 1
    20   11   12 ar
    21   11   14 1
    22   12   13 ar
    23   12   36 1
    24   13   37 1
    25   14   18 1
    26   14   15 2
    27   15   16 1
    28   15   38 1
    29   16   17 1
    30   16   24 1
    31   17   22 ar
    32   17   18 ar
    33   18   19 ar
    34   19   20 ar
    35   19   23 1
    36   20   21 ar
    37   21   22 ar
    38   21   39 1
    39   23   40 1
    40   23   41 1
    41   24   28 1
    42   24   25 1
    43   24   42 1
    44   25   26 1
    45   25   43 1
    46   25   44 1
    47   26   27 1
    48   26   45 1
    49   26   46 1
    50   27   28 1
    51   28   47 1
    52   28   48 1
@<TRIPOS>MOLECULE
CHEMBL502835
   74    78     0     0     0
SMALL
USER_CHARGES

@<TRIPOS>ATOM
      1 C1          1.2616   -3.4202   -3.5927 C.3       1 <0>        -0.0456
      2 N1          0.4160   -4.1435   -2.6336 N.4       1 <0>        -0.3892
      3 C2         -0.5808   -3.2238   -2.0695 C.3       1 <0>        -0.0012
      4 C3         -1.4739   -3.9812   -1.0844 C.3       1 <0>         0.0259
      5 N2         -0.6443   -4.5495   -0.0125 N.3       1 <0>        -0.5236
      6 C4          0.3747   -5.4533   -0.5647 C.3       1 <0>         0.0191
      7 C5          1.2526   -4.6838   -1.5540 C.3       1 <0>         0.0006
      8 C6         -1.4732   -5.2379    0.9860 C.3       1 <0>         0.0378
      9 C7         -0.6284   -5.5909    2.1829 C.2       1 <0>         0.5152
     10 O1          0.5484   -5.2979    2.2024 O.2       1 <0>        -0.5111
     11 N3         -1.1806   -6.2323    3.2319 N.am      1 <0>        -0.5637
     12 C8         -2.6224   -6.4907    3.2561 C.3       1 <0>         0.0715
     13 C9         -0.3759   -6.6518    4.2988 C.ar      1 <0>         0.0871
     14 C10         0.2366   -5.7121    5.1178 C.ar      1 <0>        -0.0574
     15 C11         1.0300   -6.1252    6.1689 C.ar      1 <0>        -0.1569
     16 C12         1.2155   -7.4812    6.4080 C.ar      1 <0>         0.2054
     17 C13         0.6023   -8.4210    5.5889 C.ar      1 <0>        -0.1622
     18 C14        -0.1952   -8.0074    4.5410 C.ar      1 <0>        -0.0740
     19 N4          2.0196   -7.9000    7.4727 N.pl3     1 <0>        -0.6660
     20 C15         2.3385   -9.2246    7.6101 C.2       1 <0>         0.3209
     21 C16         1.9918   -9.9070    8.7726 C.2       1 <0>        -0.2130
     22 C17         2.3855  -11.2777    9.1508 C.ar      1 <0>        -0.0556
     23 C18         3.1612  -12.2579    8.5334 C.ar      1 <0>        -0.0867
     24 C19         3.3512  -13.4637    9.1447 C.ar      1 <0>        -0.0788
     25 C20         2.7691  -13.7196   10.3923 C.ar      1 <0>        -0.0928
     26 C21         1.9904  -12.7442   11.0190 C.ar      1 <0>        -0.0681
     27 C22         1.7950  -11.5201   10.4027 C.ar      1 <0>         0.1316
     28 N5          1.0862  -10.3847   10.7764 N.am      1 <0>        -0.6518
     29 C23         1.1912   -9.4251    9.8420 C.2       1 <0>         0.5641
     30 O2          0.6797   -8.3204    9.9012 O.2       1 <0>        -0.5066
     31 C24         2.9786  -15.0238   11.0465 C.2       1 <0>         0.5078
     32 O3          2.4745  -15.2484   12.1291 O.2       1 <0>        -0.4985
     33 O4          3.7292  -15.9670   10.4439 O.3       1 <0>        -0.3475
     34 C25         3.8900  -17.2074   11.1350 C.3       1 <0>         0.0335
     35 C26         3.0491   -9.9280    6.5266 C.ar      1 <0>        -0.0945
     36 C27         2.5353  -11.1199    6.0077 C.ar      1 <0>        -0.0836
     37 C28         3.2056  -11.7722    4.9944 C.ar      1 <0>        -0.1223
     38 C29         4.3842  -11.2496    4.4911 C.ar      1 <0>        -0.0948
     39 C30         4.8990  -10.0700    4.9999 C.ar      1 <0>        -0.1201
     40 C31         4.2369   -9.4033    6.0093 C.ar      1 <0>        -0.0769
     41 H1          2.0005   -4.1028   -4.0125 H         1 <0>         0.1242
     42 H2          0.6409   -3.0191   -4.3940 H         1 <0>         0.1240
     43 H3          1.7707   -2.6021   -3.0833 H         1 <0>         0.1233
     44 H4         -0.0726   -2.4121   -1.5490 H         1 <0>         0.1387
     45 H5         -1.1925   -2.8136   -2.8730 H         1 <0>         0.1374
     46 H6         -2.2042   -3.2957   -0.6544 H         1 <0>         0.1250
     47 H7         -1.9927   -4.7846   -1.6074 H         1 <0>         0.0625
     48 H8          0.9931   -5.8418    0.2445 H         1 <0>         0.1394
     49 H9         -0.1136   -6.2810   -1.0791 H         1 <0>         0.0568
     50 H10         2.0001   -5.3559   -1.9754 H         1 <0>         0.1358
     51 H11         1.7514   -3.8646   -1.0362 H         1 <0>         0.1396
     52 H12        -2.2873   -4.5829    1.2963 H         1 <0>         0.1190
     53 H13        -1.8852   -6.1484    0.5508 H         1 <0>         0.0787
     54 H14        -2.8265   -7.4556    2.7921 H         1 <0>         0.0645
     55 H15        -2.9721   -6.5027    4.2884 H         1 <0>         0.0839
     56 H16        -3.1415   -5.7059    2.7058 H         1 <0>         0.0756
     57 H17         0.0924   -4.6580    4.9319 H         1 <0>         0.1260
     58 H18         1.5068   -5.3944    6.8053 H         1 <0>         0.1322
     59 H19         0.7466   -9.4751    5.7743 H         1 <0>         0.1299
     60 H20        -0.6754   -8.7379    3.9069 H         1 <0>         0.1257
     61 H21         2.3516   -7.2522    8.1139 H         1 <0>         0.4228
     62 H22         3.6115  -12.0635    7.5712 H         1 <0>         0.1423
     63 H23         3.9518  -14.2222    8.6648 H         1 <0>         0.1459
     64 H24         1.5419  -12.9445   11.9809 H         1 <0>         0.1452
     65 H25         0.5863  -10.2954   11.6029 H         1 <0>         0.4215
     66 H26         4.5143  -17.8756   10.5418 H         1 <0>         0.1062
     67 H27         4.3650  -17.0271   12.0993 H         1 <0>         0.0635
     68 H28         2.9134  -17.6657   11.2910 H         1 <0>         0.0633
     69 H29         1.6159  -11.5291    6.3997 H         1 <0>         0.1312
     70 H30         2.8100  -12.6934    4.5926 H         1 <0>         0.1325
     71 H31         4.9049  -11.7651    3.6977 H         1 <0>         0.1286
     72 H32         5.8192   -9.6681    4.6022 H         1 <0>         0.1296
     73 H33         4.6373   -8.4804    6.4020 H         1 <0>         0.1260
     74 H34        -0.0549   -4.9010   -3.1053 H         1 <0>         0.4216
@<TRIPOS>BOND
     1    1    2 1
     2    1   41 1
     3    1   42 1
     4    1   43 1
     5    2    7 1
     6    2    3 1
     7    2   74 1
     8    3    4 1
     9    3   44 1
    10    3   45 1
    11    4    5 1
    12    4   46 1
    13    4   47 1
    14    5    6 1
    15    5    8 1
    16    6    7 1
    17    6   48 1
    18    6   49 1
    19    7   50 1
    20    7   51 1
    21    8    9 1
    22    8   52 1
    23    8   53 1
    24    9   10 2
    25    9   11 am
    26   11   12 1
    27   11   13 1
    28   12   54 1
    29   12   55 1
    30   12   56 1
    31   13   18 ar
    32   13   14 ar
    33   14   15 ar
    34   14   57 1
    35   15   16 ar
    36   15   58 1
    37   16   17 ar
    38   16   19 1
    39   17   18 ar
    40   17   59 1
    41   18   60 1
    42   19   20 1
    43   19   61 1
    44   20   21 2
    45   20   35 1
    46   21   29 1
    47   21   22 1
    48   22   27 ar
    49   22   23 ar
    50   23   24 ar
    51   23   62 1
    52   24   25 ar
    53   24   63 1
    54   25   26 ar
    55   25   31 1
    56   26   27 ar
    57   26   64 1
    58   27   28 1
    59   28   29 am
    60   28   65 1
    61   29   30 2
    62   31   32 2
    63   31   33 1
    64   33   34 1
    65   34   66 1
    66   34   67 1
    67   34   68 1
    68   35   40 ar
    69   35   36 ar
    70   36   37 ar
    71   36   69 1
    72   37   38 ar
    73   37   70 1
    74   38   39 ar
    75   38   71 1
    76   39   40 ar
    77   39   72 1
    78   40   73 1
@<TRIPOS>MOLECULE
CHEMBL502835__1
   74    78     0     0     0
SMALL
USER_CHARGES

@<TRIPOS>ATOM
      1 C1          1.5229   -3.0496   -3.4162 C.3       1 <0>        -0.0457
      2 N1          0.6566   -3.8061   -2.5023 N.4       1 <0>        -0.3892
      3 C2         -0.3576   -2.9083   -1.9341 C.3       1 <0>        -0.0012
      4 C3         -1.2720   -3.6998   -0.9964 C.3       1 <0>         0.0260
      5 N2         -0.4670   -4.2995    0.0771 N.3       1 <0>        -0.5236
      6 C4          0.5690   -5.1819   -0.4780 C.3       1 <0>         0.0190
      7 C5          1.4682   -4.3781   -1.4199 C.3       1 <0>         0.0005
      8 C6         -1.3178   -5.0223    1.0320 C.3       1 <0>         0.0376
      9 C7         -0.5017   -5.4109    2.2378 C.2       1 <0>         0.5154
     10 O1          0.6731   -5.1148    2.2960 O.2       1 <0>        -0.5104
     11 N3         -1.0772   -6.0874    3.2515 N.am      1 <0>        -0.5649
     12 C8         -2.5189   -6.3471    3.2336 C.3       1 <0>         0.0716
     13 C9         -0.2970   -6.5422    4.3221 C.ar      1 <0>         0.0906
     14 C10         0.2942   -5.6303    5.1869 C.ar      1 <0>        -0.0579
     15 C11         1.0635   -6.0782    6.2418 C.ar      1 <0>        -0.1588
     16 C12         1.2461   -7.4414    6.4386 C.ar      1 <0>         0.1981
     17 C13         0.6543   -8.3533    5.5735 C.ar      1 <0>        -0.1571
     18 C14        -0.1192   -7.9050    4.5219 C.ar      1 <0>        -0.0737
     19 N4          2.0259   -7.8954    7.5069 N.pl3     1 <0>        -0.6762
     20 C15         2.3385   -9.2246    7.6101 C.2       1 <0>         0.3257
     21 C16         1.9759   -9.9385    8.7486 C.2       1 <0>        -0.2166
     22 C17         1.1431   -9.4624    9.8697 C.ar      1 <0>        -0.0586
     23 C18         0.5006   -8.2556   10.1425 C.ar      1 <0>        -0.0823
     24 C19        -0.2162   -8.1091   11.2951 C.ar      1 <0>        -0.0791
     25 C20        -0.3088   -9.1688   12.2056 C.ar      1 <0>        -0.0932
     26 C21         0.3311  -10.3817   11.9415 C.ar      1 <0>        -0.0676
     27 C22         1.0591  -10.5348   10.7739 C.ar      1 <0>         0.1333
     28 N5          1.7856  -11.5996   10.2546 N.am      1 <0>        -0.6520
     29 C23         2.3262  -11.2772    9.0677 C.2       1 <0>         0.5660
     30 O2          3.0094  -12.0138    8.3776 O.2       1 <0>        -0.4968
     31 C24        -1.0846   -9.0034   13.4481 C.2       1 <0>         0.5076
     32 O3         -1.1666   -9.9215   14.2399 O.2       1 <0>        -0.4978
     33 O4         -1.7028   -7.8340   13.7058 O.3       1 <0>        -0.3481
     34 C25        -2.4369   -7.7440   14.9286 C.3       1 <0>         0.0335
     35 C26         3.0591   -9.8996    6.5152 C.ar      1 <0>        -0.0978
     36 C27         4.2176   -9.3290    5.9802 C.ar      1 <0>        -0.0768
     37 C28         4.8862   -9.9661    4.9562 C.ar      1 <0>        -0.1289
     38 C29         4.4130  -11.1675    4.4581 C.ar      1 <0>        -0.0926
     39 C30         3.2666  -11.7386    4.9828 C.ar      1 <0>        -0.1241
     40 C31         2.5905  -11.1160    6.0109 C.ar      1 <0>        -0.0444
     41 H1          2.2748   -3.7160   -3.8390 H         1 <0>         0.1242
     42 H2          0.9208   -2.6250   -4.2195 H         1 <0>         0.1241
     43 H3          2.0159   -2.2466   -2.8683 H         1 <0>         0.1233
     44 H4          0.1341   -2.1120   -1.3753 H         1 <0>         0.1387
     45 H5         -0.9507   -2.4744   -2.7391 H         1 <0>         0.1374
     46 H6         -2.0155   -3.0308   -0.5631 H         1 <0>         0.1251
     47 H7         -1.7743   -4.4876   -1.5578 H         1 <0>         0.0625
     48 H8          1.1687   -5.5941    0.3335 H         1 <0>         0.1395
     49 H9          0.0970   -5.9941   -1.0308 H         1 <0>         0.0570
     50 H10         2.2287   -5.0339   -1.8438 H         1 <0>         0.1359
     51 H11         1.9506   -3.5743   -0.8638 H         1 <0>         0.1396
     52 H12        -2.1420   -4.3802    1.3426 H         1 <0>         0.1191
     53 H13        -1.7151   -5.9197    0.5576 H         1 <0>         0.0788
     54 H14        -2.7110   -7.2960    2.7328 H         1 <0>         0.0646
     55 H15        -2.8924   -6.3940    4.2565 H         1 <0>         0.0840
     56 H16        -3.0260   -5.5445    2.6981 H         1 <0>         0.0759
     57 H17         0.1522   -4.5707    5.0339 H         1 <0>         0.1266
     58 H18         1.5237   -5.3691    6.9139 H         1 <0>         0.1329
     59 H19         0.7964   -9.4130    5.7261 H         1 <0>         0.1311
     60 H20        -0.5829   -8.6140    3.8520 H         1 <0>         0.1263
     61 H21         2.3454   -7.2688    8.1749 H         1 <0>         0.4200
     62 H22         0.5703   -7.4364    9.4422 H         1 <0>         0.1320
     63 H23        -0.7128   -7.1733   11.5053 H         1 <0>         0.1456
     64 H24         0.2586  -11.1973   12.6458 H         1 <0>         0.1456
     65 H25         1.8853  -12.4613   10.6887 H         1 <0>         0.4220
     66 H26        -2.8837   -6.7533   15.0120 H         1 <0>         0.1061
     67 H27        -3.2230   -8.4990   14.9368 H         1 <0>         0.0634
     68 H28        -1.7639   -7.9111   15.7696 H         1 <0>         0.0637
     69 H29         4.5879   -8.3913    6.3676 H         1 <0>         0.1221
     70 H30         5.7813   -9.5263    4.5416 H         1 <0>         0.1264
     71 H31         4.9406  -11.6617    3.6558 H         1 <0>         0.1253
     72 H32         2.9032  -12.6763    4.5890 H         1 <0>         0.1274
     73 H33         1.6987  -11.5652    6.4226 H         1 <0>         0.1223
     74 H34         0.2007   -4.5496   -3.0096 H         1 <0>         0.4217
@<TRIPOS>BOND
     1    1    2 1
     2    1   41 1
     3    1   42 1
     4    1   43 1
     5    2    7 1
     6    2    3 1
     7    2   74 1
     8    3    4 1
     9    3   44 1
    10    3   45 1
    11    4    5 1
    12    4   46 1
    13    4   47 1
    14    5    6 1
    15    5    8 1
    16    6    7 1
    17    6   48 1
    18    6   49 1
    19    7   50 1
    20    7   51 1
    21    8    9 1
    22    8   52 1
    23    8   53 1
    24    9   10 2
    25    9   11 am
    26   11   12 1
    27   11   13 1
    28   12   54 1
    29   12   55 1
    30   12   56 1
    31   13   18 ar
    32   13   14 ar
    33   14   15 ar
    34   14   57 1
    35   15   16 ar
    36   15   58 1
    37   16   17 ar
    38   16   19 1
    39   17   18 ar
    40   17   59 1
    41   18   60 1
    42   19   20 1
    43   19   61 1
    44   20   21 2
    45   20   35 1
    46   21   29 1
    47   21   22 1
    48   22   27 ar
    49   22   23 ar
    50   23   24 ar
    51   23   62 1
    52   24   25 ar
    53   24   63 1
    54   25   26 ar
    55   25   31 1
    56   26   27 ar
    57   26   64 1
    58   27   28 1
    59   28   29 am
    60   28   65 1
    61   29   30 2
    62   31   32 2
    63   31   33 1
    64   33   34 1
    65   34   66 1
    66   34   67 1
    67   34   68 1
    68   35   40 ar
    69   35   36 ar
    70   36   37 ar
    71   36   69 1
    72   37   38 ar
    73   37   70 1
    74   38   39 ar
    75   38   71 1
    76   39   40 ar
    77   39   72 1
    78   40   73 1
@<TRIPOS>MOLECULE
CHEMBL106772
   54    58     0     0     0
SMALL
USER_CHARGES

@<TRIPOS>ATOM
      1 C1         -0.0332    1.3909    0.6137 C.3       1 <0>         0.0706
      2 N1         -0.0055   -0.0383    0.2928 N.am      1 <0>        -0.5067
      3 C2         -1.1828   -0.7081    0.0742 C.ar      1 <0>         0.4676
      4 C3         -1.1737   -2.0853   -0.2365 C.ar      1 <0>        -0.2820
      5 C4          0.0505   -2.7863   -0.3250 C.2       1 <0>         0.0337
      6 C5          1.2203   -2.1096   -0.1052 C.2       1 <0>        -0.1683
      7 C6          1.1757   -0.6801    0.2099 C.2       1 <0>         0.5583
      8 O1          2.2120   -0.0695    0.4024 O.2       1 <0>        -0.5048
      9 C7          2.5198   -2.8161   -0.1902 C.ar      1 <0>        -0.0083
     10 C8          3.0642   -3.4205    0.9436 C.ar      1 <0>        -0.0070
     11 C9          4.2758   -4.0779    0.8575 C.ar      1 <0>        -0.1065
     12 C10         4.9495   -4.1377   -0.3491 C.ar      1 <0>        -0.0881
     13 C11         4.4153   -3.5407   -1.4768 C.ar      1 <0>        -0.1064
     14 C12         3.2018   -2.8851   -1.4056 C.ar      1 <0>        -0.0070
     15 Cl1         2.5299   -2.1422   -2.8235 Cl        1 <0>        -0.0504
     16 Cl2         2.2209   -3.3456    2.4592 Cl        1 <0>        -0.0505
     17 C13        -2.3995   -2.7325   -0.4533 C.ar      1 <0>         0.2650
     18 N2         -3.5114   -2.0280   -0.3581 N.ar      1 <0>        -0.5679
     19 C14        -3.4819   -0.7327   -0.0637 C.ar      1 <0>         0.6097
     20 N3         -2.3501   -0.0788    0.1492 N.ar      1 <0>        -0.5987
     21 N4         -4.6753   -0.0428    0.0231 N.pl3     1 <0>        -0.6223
     22 C15        -5.8911   -0.7305   -0.0815 C.ar      1 <0>         0.0931
     23 C16        -6.0348   -1.9801    0.5071 C.ar      1 <0>        -0.0503
     24 C17        -7.2332   -2.6581    0.4040 C.ar      1 <0>        -0.1806
     25 C18        -8.2950   -2.0901   -0.2879 C.ar      1 <0>         0.2137
     26 C19        -8.1513   -0.8403   -0.8761 C.ar      1 <0>        -0.1813
     27 C20        -6.9545   -0.1603   -0.7689 C.ar      1 <0>        -0.0850
     28 N5         -9.5094   -2.7774   -0.3928 N.pl3     1 <0>        -0.6332
     29 C21        -9.7248   -4.0476    0.3183 C.3       1 <0>         0.0867
     30 C22       -11.0457   -3.9514    1.0903 C.3       1 <0>         0.0453
     31 O2        -12.0837   -3.5395    0.1978 O.3       1 <0>        -0.3791
     32 C23       -11.8867   -2.2424   -0.3702 C.3       1 <0>         0.0452
     33 C24       -10.6109   -2.2482   -1.2126 C.3       1 <0>         0.0859
     34 H1          0.9861    1.7527    0.7487 H         1 <0>         0.1000
     35 H2         -0.5077    1.9371   -0.2015 H         1 <0>         0.0797
     36 H3         -0.5986    1.5460    1.5326 H         1 <0>         0.0799
     37 H4          0.0629   -3.8399   -0.5620 H         1 <0>         0.1493
     38 H5          4.6983   -4.5460    1.7343 H         1 <0>         0.1435
     39 H6          5.8970   -4.6524   -0.4109 H         1 <0>         0.1451
     40 H7          4.9463   -3.5910   -2.4159 H         1 <0>         0.1435
     41 H8         -2.4324   -3.7850   -0.6934 H         1 <0>         0.1861
     42 H9         -4.6715    0.9180    0.1565 H         1 <0>         0.4240
     43 H10        -5.2091   -2.4218    1.0451 H         1 <0>         0.1286
     44 H11        -7.3447   -3.6302    0.8611 H         1 <0>         0.1261
     45 H12        -8.9770   -0.3985   -1.4142 H         1 <0>         0.1271
     46 H13        -6.8440    0.8133   -1.2231 H         1 <0>         0.1255
     47 H14        -9.7781   -4.8659   -0.3998 H         1 <0>         0.0714
     48 H15        -8.9045   -4.2222    1.0145 H         1 <0>         0.0930
     49 H16       -11.2930   -4.9259    1.5114 H         1 <0>         0.1055
     50 H17       -10.9455   -3.2217    1.8937 H         1 <0>         0.0559
     51 H18       -12.7391   -1.9874   -0.9999 H         1 <0>         0.1055
     52 H19       -11.7896   -1.5065    0.4279 H         1 <0>         0.0555
     53 H20       -10.3771   -1.2319   -1.5296 H         1 <0>         0.0930
     54 H21       -10.7549   -2.8822   -2.0874 H         1 <0>         0.0713
@<TRIPOS>BOND
     1    1    2 1
     2    1   34 1
     3    1   35 1
     4    1   36 1
     5    2    7 am
     6    2    3 1
     7    3   20 ar
     8    3    4 ar
     9    4    5 1
    10    4   17 ar
    11    5    6 2
    12    5   37 1
    13    6    7 1
    14    6    9 1
    15    7    8 2
    16    9   14 ar
    17    9   10 ar
    18   10   11 ar
    19   10   16 1
    20   11   12 ar
    21   11   38 1
    22   12   13 ar
    23   12   39 1
    24   13   14 ar
    25   13   40 1
    26   14   15 1
    27   17   18 ar
    28   17   41 1
    29   18   19 ar
    30   19   20 ar
    31   19   21 1
    32   21   22 1
    33   21   42 1
    34   22   27 ar
    35   22   23 ar
    36   23   24 ar
    37   23   43 1
    38   24   25 ar
    39   24   44 1
    40   25   26 ar
    41   25   28 1
    42   26   27 ar
    43   26   45 1
    44   27   46 1
    45   28   33 1
    46   28   29 1
    47   29   30 1
    48   29   47 1
    49   29   48 1
    50   30   31 1
    51   30   49 1
    52   30   50 1
    53   31   32 1
    54   32   33 1
    55   32   51 1
    56   32   52 1
    57   33   53 1
    58   33   54 1
@<TRIPOS>MOLECULE
CHEMBL67292
   45    48     0     0     0
SMALL
USER_CHARGES

@<TRIPOS>ATOM
      1 C1         -2.3214    0.0994    0.8118 C.3       1 <0>        -0.1148
      2 C2         -1.1016   -0.6762    0.3859 C.ar      1 <0>        -0.0626
      3 C3         -1.0990   -1.3545   -0.8177 C.ar      1 <0>        -0.1115
      4 C4          0.0194   -2.0665   -1.2097 C.ar      1 <0>        -0.0948
      5 C5          1.1395   -2.1026   -0.3991 C.ar      1 <0>        -0.1130
      6 C6          1.1439   -1.4261    0.8058 C.ar      1 <0>        -0.0213
      7 C7          0.0226   -0.7051    1.2000 C.ar      1 <0>         0.1388
      8 N1          0.0251   -0.0145    2.4167 N.am      1 <0>        -0.6792
      9 C8         -0.3549   -0.6410    3.5479 C.2       1 <0>         0.5730
     10 O1         -0.6122   -1.8294    3.5278 O.2       1 <0>        -0.5125
     11 C9         -0.4587    0.1146    4.8100 C.ar      1 <0>        -0.1296
     12 C10        -0.1701    1.4863    4.8440 C.ar      1 <0>        -0.0705
     13 C11        -0.2590    2.2000    5.9930 C.ar      1 <0>        -0.0733
     14 C12        -0.6487    1.5837    7.2083 C.ar      1 <0>         0.1398
     15 C13        -0.9349    0.1976    7.1485 C.ar      1 <0>        -0.1683
     16 C14        -0.8521   -0.5251    5.9901 C.ar      1 <0>         0.0137
     17 S1         -1.3695   -0.1718    8.8313 S.3       1 <0>         0.0254
     18 C15        -1.1520    1.4772    9.4855 C.2       1 <0>         0.3843
     19 N2         -0.7816    2.1540    8.4214 N.2       1 <0>        -0.5160
     20 N3         -1.3285    1.9268   10.7822 N.am      1 <0>        -0.6165
     21 C16        -1.1121    3.2231   11.0814 C.2       1 <0>         0.5173
     22 O2         -0.7627    3.9953   10.2141 O.2       1 <0>        -0.4594
     23 C17        -1.3044    3.7127   12.4936 C.3       1 <0>        -0.1346
     24 C18        -2.7681    4.0316   12.8411 C.3       1 <0>        -0.1256
     25 C19        -2.2376    5.2561   13.6052 C.3       1 <0>        -0.1411
     26 C20        -1.0180    5.2133   12.6696 C.3       1 <0>        -0.1178
     27 Cl1         2.5499   -1.4716    1.8231 Cl        1 <0>        -0.0571
     28 H1         -2.2503    1.1215    0.4398 H         1 <0>         0.0772
     29 H2         -3.2142   -0.3745    0.4037 H         1 <0>         0.0737
     30 H3         -2.3822    0.1123    1.9000 H         1 <0>         0.0674
     31 H4         -1.9719   -1.3288   -1.4531 H         1 <0>         0.1347
     32 H5          0.0184   -2.5960   -2.1510 H         1 <0>         0.1368
     33 H6          2.0112   -2.6603   -0.7079 H         1 <0>         0.1381
     34 H7          0.3003    0.9151    2.4462 H         1 <0>         0.4105
     35 H8          0.1300    1.9853    3.9344 H         1 <0>         0.1367
     36 H9         -0.0288    3.2551    5.9822 H         1 <0>         0.1421
     37 H10        -1.0838   -1.5799    5.9876 H         1 <0>         0.1485
     38 H11        -1.6080    1.3091   11.4759 H         1 <0>         0.4315
     39 H12        -0.8062    3.0837   13.2312 H         1 <0>         0.1228
     40 H13        -3.3768    4.2880   11.9740 H         1 <0>         0.0876
     41 H14        -3.2369    3.2858   13.4830 H         1 <0>         0.0810
     42 H15        -2.8520    6.1479   13.4813 H         1 <0>         0.0768
     43 H16        -1.9957    5.0491   14.6477 H         1 <0>         0.0872
     44 H17        -0.0739    5.4215   13.1730 H         1 <0>         0.0775
     45 H18        -1.1482    5.7929   11.7556 H         1 <0>         0.0972
@<TRIPOS>BOND
     1    1    2 1
     2    1   28 1
     3    1   29 1
     4    1   30 1
     5    2    7 ar
     6    2    3 ar
     7    3    4 ar
     8    3   31 1
     9    4    5 ar
    10    4   32 1
    11    5    6 ar
    12    5   33 1
    13    6    7 ar
    14    6   27 1
    15    7    8 1
    16    8    9 am
    17    8   34 1
    18    9   10 2
    19    9   11 1
    20   11   16 ar
    21   11   12 ar
    22   12   13 ar
    23   12   35 1
    24   13   14 ar
    25   13   36 1
    26   14   19 1
    27   14   15 ar
    28   15   16 ar
    29   15   17 1
    30   16   37 1
    31   17   18 1
    32   18   19 2
    33   18   20 1
    34   20   21 am
    35   20   38 1
    36   21   22 2
    37   21   23 1
    38   23   26 1
    39   23   24 1
    40   23   39 1
    41   24   25 1
    42   24   40 1
    43   24   41 1
    44   25   26 1
    45   25   42 1
    46   25   43 1
    47   26   44 1
    48   26   45 1
@<TRIPOS>MOLECULE
CHEMBL67237
   49    51     0     0     0
SMALL
USER_CHARGES

@<TRIPOS>ATOM
      1 C1         -2.3215    0.0989    0.8112 C.3       1 <0>        -0.1147
      2 C2         -1.1015   -0.6767    0.3857 C.ar      1 <0>        -0.0627
      3 C3         -1.0985   -1.3553   -0.8177 C.ar      1 <0>        -0.1116
      4 C4          0.0202   -2.0668   -1.2095 C.ar      1 <0>        -0.0950
      5 C5          1.1403   -2.1021   -0.3989 C.ar      1 <0>        -0.1132
      6 C6          1.1442   -1.4256    0.8060 C.ar      1 <0>        -0.0213
      7 C7          0.0226   -0.7051    1.2000 C.ar      1 <0>         0.1391
      8 N1          0.0246   -0.0145    2.4167 N.am      1 <0>        -0.6794
      9 C8         -0.3554   -0.6412    3.5478 C.2       1 <0>         0.5732
     10 O1         -0.6123   -1.8297    3.5276 O.2       1 <0>        -0.5132
     11 C9         -0.4597    0.1144    4.8099 C.ar      1 <0>        -0.1314
     12 C10        -0.1717    1.4861    4.8439 C.ar      1 <0>        -0.0703
     13 C11        -0.2611    2.1998    5.9929 C.ar      1 <0>        -0.0738
     14 C12        -0.6513    1.5834    7.2081 C.ar      1 <0>         0.1426
     15 C13        -0.9374    0.1974    7.1480 C.ar      1 <0>        -0.1702
     16 C14        -0.8532   -0.5255    5.9900 C.ar      1 <0>         0.0143
     17 S1         -1.3727   -0.1723    8.8306 S.3       1 <0>         0.0273
     18 C15        -1.1555    1.4767    9.4851 C.2       1 <0>         0.4039
     19 N2         -0.7847    2.1538    8.4212 N.2       1 <0>        -0.5129
     20 N3         -1.3333    1.9262   10.7813 N.am      1 <0>        -0.6249
     21 C16        -1.1170    3.2223   11.0807 C.2       1 <0>         0.6995
     22 O2         -0.7657    3.9965   10.2117 O.2       1 <0>        -0.5146
     23 N4         -1.2902    3.6602   12.3435 N.am      1 <0>        -0.7282
     24 C17        -1.0551    5.0691   12.6690 C.3       1 <0>         0.1867
     25 C18        -1.9952    5.9476   11.8410 C.3       1 <0>        -0.1673
     26 C19        -1.3209    5.2999   14.1579 C.3       1 <0>        -0.1561
     27 C20         0.3963    5.4314   12.3479 C.3       1 <0>        -0.1674
     28 Cl1         2.5501   -1.4706    1.8235 Cl        1 <0>        -0.0571
     29 H1         -2.2505    1.1209    0.4389 H         1 <0>         0.0772
     30 H2         -3.2141   -0.3753    0.4031 H         1 <0>         0.0736
     31 H3         -2.3824    0.1121    1.8994 H         1 <0>         0.0676
     32 H4         -1.9715   -1.3302   -1.4530 H         1 <0>         0.1346
     33 H5          0.0194   -2.5966   -2.1506 H         1 <0>         0.1367
     34 H6          2.0125   -2.6591   -0.7078 H         1 <0>         0.1380
     35 H7          0.2995    0.9152    2.4462 H         1 <0>         0.4105
     36 H8          0.1285    1.9853    3.9344 H         1 <0>         0.1360
     37 H9         -0.0310    3.2549    5.9823 H         1 <0>         0.1421
     38 H10        -1.0844   -1.5804    5.9875 H         1 <0>         0.1479
     39 H11        -1.6136    1.3085   11.4747 H         1 <0>         0.4261
     40 H12        -1.5705    3.0425   13.0369 H         1 <0>         0.3984
     41 H13        -3.0292    5.6895   12.0697 H         1 <0>         0.0547
     42 H14        -1.8202    6.9958   12.0831 H         1 <0>         0.0667
     43 H15        -1.8058    5.7832   10.7802 H         1 <0>         0.0804
     44 H16        -0.6512    4.6741   14.7478 H         1 <0>         0.0638
     45 H17        -1.1460    6.3481   14.4001 H         1 <0>         0.0786
     46 H18        -2.3549    5.0418   14.3867 H         1 <0>         0.0638
     47 H19         0.5857    5.2671   11.2871 H         1 <0>         0.0804
     48 H20         0.5712    6.4797   12.5900 H         1 <0>         0.0667
     49 H21         1.0660    4.8056   12.9378 H         1 <0>         0.0547
@<TRIPOS>BOND
     1    1    2 1
     2    1   29 1
     3    1   30 1
     4    1   31 1
     5    2    7 ar
     6    2    3 ar
     7    3    4 ar
     8    3   32 1
     9    4    5 ar
    10    4   33 1
    11    5    6 ar
    12    5   34 1
    13    6    7 ar
    14    6   28 1
    15    7    8 1
    16    8    9 am
    17    8   35 1
    18    9   10 2
    19    9   11 1
    20   11   16 ar
    21   11   12 ar
    22   12   13 ar
    23   12   36 1
    24   13   14 ar
    25   13   37 1
    26   14   19 1
    27   14   15 ar
    28   15   16 ar
    29   15   17 1
    30   16   38 1
    31   17   18 1
    32   18   19 2
    33   18   20 1
    34   20   21 am
    35   20   39 1
    36   21   22 2
    37   21   23 am
    38   23   24 1
    39   23   40 1
    40   24   25 1
    41   24   26 1
    42   24   27 1
    43   25   41 1
    44   25   42 1
    45   25   43 1
    46   26   44 1
    47   26   45 1
    48   26   46 1
    49   27   47 1
    50   27   48 1
    51   27   49 1
@<TRIPOS>MOLECULE
CHEMBL595398
   56    59     0     0     0
SMALL
USER_CHARGES

@<TRIPOS>ATOM
      1 C1          0.8656   -0.3580   -0.9926 C.3       1 <0>        -0.0542
      2 N1         -0.0118   -0.0050    0.1314 N.4       1 <0>        -0.3887
      3 C2         -0.0444    1.4554    0.2873 C.3       1 <0>        -0.0476
      4 C3         -1.3695   -0.4996   -0.1331 C.3       1 <0>        -0.0018
      5 C4         -1.3621   -2.0295   -0.1432 C.3       1 <0>         0.0253
      6 O1         -1.0224   -2.5127    1.1580 O.3       1 <0>        -0.3291
      7 C5         -0.9712   -3.8617    1.3217 C.ar      1 <0>         0.0943
      8 C6         -1.2369   -4.7019    0.2496 C.ar      1 <0>        -0.1715
      9 C7         -1.1842   -6.0632    0.4433 C.ar      1 <0>        -0.1043
     10 C8         -0.8662   -6.6009    1.6942 C.ar      1 <0>         0.1712
     11 C9         -0.5898   -5.7808    2.7634 C.ar      1 <0>        -0.0756
     12 C10        -0.6499   -4.3953    2.5502 C.ar      1 <0>        -0.1234
     13 C11        -0.1985   -6.1337    4.1824 C.3       1 <0>        -0.0925
     14 C12         0.2065   -7.5788    4.3804 C.3       1 <0>         0.1267
     15 N2         -0.9005   -8.4873    4.0670 N.pl3     1 <0>        -0.3648
     16 C13        -1.3964   -8.6540    2.8544 C.2       1 <0>         0.3730
     17 C14        -2.4453   -9.5560    2.9145 C.2       1 <0>        -0.2933
     18 C15        -2.5374   -9.9510    4.3293 C.2       1 <0>         0.1739
     19 N3         -1.5978   -9.2943    4.9749 N.2       1 <0>        -0.2671
     20 C16        -3.5059  -10.9080    4.9159 C.ar      1 <0>        -0.0374
     21 C17        -4.8037  -10.9856    4.4123 C.ar      1 <0>        -0.0757
     22 C18        -5.7021  -11.8767    4.9601 C.ar      1 <0>        -0.1442
     23 C19        -5.3157  -12.6958    6.0125 C.ar      1 <0>         0.1240
     24 C20        -4.0241  -12.6210    6.5162 C.ar      1 <0>        -0.1447
     25 C21        -3.1191  -11.7363    5.9687 C.ar      1 <0>        -0.0659
     26 O2         -6.2036  -13.5722    6.5507 O.3       1 <0>        -0.4982
     27 C22        -3.2850  -10.0188    1.8053 C.2       1 <0>         0.6106
     28 O3         -2.9620  -11.0036    1.1673 O.2       1 <0>        -0.5295
     29 N4         -4.4146   -9.3536    1.4922 N.am      1 <0>        -0.8485
     30 N5         -0.8626   -7.9967    1.7682 N.pl3     1 <0>        -0.6856
     31 H1          1.8730    0.0089   -0.7963 H         1 <0>         0.1273
     32 H2          0.8897   -1.4416   -1.1082 H         1 <0>         0.1213
     33 H3          0.4851    0.0966   -1.9073 H         1 <0>         0.1248
     34 H4          0.9658    1.8244    0.4649 H         1 <0>         0.1260
     35 H5         -0.4425    1.9089   -0.6204 H         1 <0>         0.1232
     36 H6         -0.6804    1.7164    1.1331 H         1 <0>         0.1248
     37 H7         -2.0438   -0.1446    0.6463 H         1 <0>         0.1426
     38 H8         -1.7080   -0.1315   -1.1017 H         1 <0>         0.1495
     39 H9         -2.3506   -2.3958   -0.4202 H         1 <0>         0.1086
     40 H10        -0.6274   -2.3845   -0.8658 H         1 <0>         0.0866
     41 H11        -1.4814   -4.2942   -0.7202 H         1 <0>         0.1343
     42 H12        -1.3919   -6.7264   -0.3834 H         1 <0>         0.1371
     43 H13        -0.4428   -3.7282    3.3739 H         1 <0>         0.1344
     44 H14         0.6351   -5.4973    4.4793 H         1 <0>         0.1084
     45 H15        -1.0429   -5.9186    4.8373 H         1 <0>         0.0908
     46 H16         1.0504   -7.8058    3.7289 H         1 <0>         0.0938
     47 H17         0.5073   -7.7266    5.4176 H         1 <0>         0.1157
     48 H18        -5.1051  -10.3482    3.5942 H         1 <0>         0.1278
     49 H19        -6.7076  -11.9373    4.5705 H         1 <0>         0.1358
     50 H20        -3.7267  -13.2592    7.3351 H         1 <0>         0.1369
     51 H21        -2.1132  -11.6817    6.3580 H         1 <0>         0.1341
     52 H22        -6.2005  -14.4432    6.1306 H         1 <0>         0.3965
     53 H23        -4.6720   -8.5687    2.0007 H         1 <0>         0.4012
     54 H24        -4.9701   -9.6598    0.7584 H         1 <0>         0.4050
     55 H25        -0.4776   -8.5114    1.0417 H         1 <0>         0.4242
     56 H26         0.3404   -0.4258    0.9781 H         1 <0>         0.4338
@<TRIPOS>BOND
     1    1    2 1
     2    1   31 1
     3    1   32 1
     4    1   33 1
     5    2    3 1
     6    2    4 1
     7    2   56 1
     8    3   34 1
     9    3   35 1
    10    3   36 1
    11    4    5 1
    12    4   37 1
    13    4   38 1
    14    5    6 1
    15    5   39 1
    16    5   40 1
    17    6    7 1
    18    7   12 ar
    19    7    8 ar
    20    8    9 ar
    21    8   41 1
    22    9   10 ar
    23    9   42 1
    24   10   30 1
    25   10   11 ar
    26   11   12 ar
    27   11   13 1
    28   12   43 1
    29   13   14 1
    30   13   44 1
    31   13   45 1
    32   14   15 1
    33   14   46 1
    34   14   47 1
    35   15   19 1
    36   15   16 1
    37   16   17 2
    38   16   30 1
    39   17   18 1
    40   17   27 1
    41   18   19 2
    42   18   20 1
    43   20   25 ar
    44   20   21 ar
    45   21   22 ar
    46   21   48 1
    47   22   23 ar
    48   22   49 1
    49   23   24 ar
    50   23   26 1
    51   24   25 ar
    52   24   50 1
    53   25   51 1
    54   26   52 1
    55   27   28 2
    56   27   29 am
    57   29   53 1
    58   29   54 1
    59   30   55 1
@<TRIPOS>MOLECULE
CHEMBL315279
   43    46     0     0     0
SMALL
USER_CHARGES

@<TRIPOS>ATOM
      1 C1         -2.3214    0.1000    0.8125 C.3       1 <0>        -0.1145
      2 C2         -1.1017   -0.6757    0.3861 C.ar      1 <0>        -0.0632
      3 C3         -1.0994   -1.3536   -0.8177 C.ar      1 <0>        -0.1117
      4 C4          0.0186   -2.0661   -1.2099 C.ar      1 <0>        -0.0952
      5 C5          1.1387   -2.1027   -0.3995 C.ar      1 <0>        -0.1131
      6 C6          1.1435   -1.4266    0.8056 C.ar      1 <0>        -0.0215
      7 C7          0.0226   -0.7051    1.2000 C.ar      1 <0>         0.1398
      8 N1          0.0256   -0.0145    2.4167 N.am      1 <0>        -0.6804
      9 C8         -0.3544   -0.6409    3.5480 C.2       1 <0>         0.5743
     10 O1         -0.6122   -1.8292    3.5279 O.2       1 <0>        -0.5152
     11 C9         -0.4576    0.1147    4.8099 C.ar      1 <0>        -0.1440
     12 C10        -0.1686    1.4862    4.8438 C.ar      1 <0>        -0.0639
     13 C11        -0.2572    2.1997    5.9931 C.ar      1 <0>        -0.0903
     14 C12        -0.6472    1.5834    7.2082 C.ar      1 <0>         0.1613
     15 C13        -0.9343    0.1977    7.1482 C.ar      1 <0>        -0.1799
     16 C14        -0.8511   -0.5250    5.9905 C.ar      1 <0>         0.0202
     17 S1         -1.3705   -0.1720    8.8306 S.3       1 <0>         0.0059
     18 C15        -1.1525    1.4765    9.4857 C.2       1 <0>         0.4004
     19 N2         -0.7806    2.1543    8.4213 N.2       1 <0>        -0.5701
     20 N3         -1.3298    1.9240   10.7770 N.pl3     1 <0>        -0.4541
     21 N4         -1.1042    3.2711   11.0888 N.pl3     1 <0>        -0.2432
     22 C16         0.1563    3.7253   11.4876 C.2       1 <0>         0.1228
     23 C17         0.4596    5.0176   11.2850 C.2       1 <0>        -0.1691
     24 C18        -0.5305    5.9054   10.6571 C.2       1 <0>        -0.1919
     25 C19        -1.8035    5.4960   10.5337 C.2       1 <0>         0.1044
     26 N5         -2.1383    4.2275   11.0077 N.pl3     1 <0>        -0.5367
     27 Cl1         2.5496   -1.4728    1.8226 Cl        1 <0>        -0.0571
     28 H1         -2.2501    1.1222    0.4408 H         1 <0>         0.0768
     29 H2         -3.2142   -0.3736    0.4043 H         1 <0>         0.0735
     30 H3         -2.3819    0.1125    1.9007 H         1 <0>         0.0674
     31 H4         -1.9724   -1.3272   -1.4531 H         1 <0>         0.1345
     32 H5          0.0171   -2.5956   -2.1512 H         1 <0>         0.1367
     33 H6          2.0103   -2.6605   -0.7086 H         1 <0>         0.1380
     34 H7          0.3012    0.9150    2.4461 H         1 <0>         0.4099
     35 H8          0.1315    1.9852    3.9343 H         1 <0>         0.1335
     36 H9         -0.0264    3.2547    5.9826 H         1 <0>         0.1367
     37 H10        -1.0829   -1.5798    5.9882 H         1 <0>         0.1455
     38 H11        -1.6107    1.3062   11.4700 H         1 <0>         0.4466
     39 H12         0.8675    3.0543   11.9463 H         1 <0>         0.1538
     40 H13         1.4241    5.4026   11.5816 H         1 <0>         0.1348
     41 H14        -0.2358    6.8804   10.2978 H         1 <0>         0.1288
     42 H15        -2.5480    6.1310   10.0768 H         1 <0>         0.1471
     43 H16        -3.0465    4.0136   11.2726 H         1 <0>         0.4225
@<TRIPOS>BOND
     1    1    2 1
     2    1   28 1
     3    1   29 1
     4    1   30 1
     5    2    7 ar
     6    2    3 ar
     7    3    4 ar
     8    3   31 1
     9    4    5 ar
    10    4   32 1
    11    5    6 ar
    12    5   33 1
    13    6    7 ar
    14    6   27 1
    15    7    8 1
    16    8    9 am
    17    8   34 1
    18    9   10 2
    19    9   11 1
    20   11   16 ar
    21   11   12 ar
    22   12   13 ar
    23   12   35 1
    24   13   14 ar
    25   13   36 1
    26   14   19 1
    27   14   15 ar
    28   15   16 ar
    29   15   17 1
    30   16   37 1
    31   17   18 1
    32   18   19 2
    33   18   20 1
    34   20   21 1
    35   20   38 1
    36   21   26 1
    37   21   22 1
    38   22   23 2
    39   22   39 1
    40   23   24 1
    41   23   40 1
    42   24   25 2
    43   24   41 1
    44   25   26 1
    45   25   42 1
    46   26   43 1
@<TRIPOS>MOLECULE
CHEMBL596079
   70    75     0     0     0
SMALL
USER_CHARGES

@<TRIPOS>ATOM
      1 C1          1.8854    0.7332    6.1955 C.ar      1 <0>        -0.1522
      2 C2          2.1579   -0.6062    5.9870 C.ar      1 <0>        -0.0819
      3 C3          2.3433   -1.0830    4.7039 C.ar      1 <0>        -0.1931
      4 C4          2.2557   -0.2165    3.6237 C.ar      1 <0>         0.1212
      5 C5          1.9821    1.1273    3.8357 C.ar      1 <0>        -0.1457
      6 C6          1.7976    1.5989    5.1209 C.ar      1 <0>        -0.0831
      7 O1          2.4381   -0.6828    2.3605 O.3       1 <0>        -0.2599
      8 C7          2.5953   -2.0216    2.1914 C.ar      1 <0>         0.0963
      9 C8          1.4812   -2.8488    2.1381 C.ar      1 <0>        -0.1301
     10 C9          1.6375   -4.2080    1.9670 C.ar      1 <0>        -0.0712
     11 C10         2.9159   -4.7517    1.8470 C.ar      1 <0>        -0.0200
     12 C11         4.0326   -3.9184    1.9004 C.ar      1 <0>        -0.0767
     13 C12         3.8695   -2.5593    2.0664 C.ar      1 <0>        -0.1209
     14 C13         3.0875   -6.2127    1.6634 C.2       1 <0>         0.1643
     15 C14         4.1257   -6.8777    0.8596 C.2       1 <0>        -0.2997
     16 C15         3.8769   -8.2335    0.9906 C.2       1 <0>         0.3837
     17 N1          2.8348   -8.4065    1.7833 N.pl3     1 <0>        -0.3618
     18 N2          2.3439   -7.1603    2.1929 N.2       1 <0>        -0.2695
     19 C16         2.3126   -9.7195    2.1735 C.3       1 <0>         0.1286
     20 C17         3.2961  -10.4605    3.0539 C.3       1 <0>        -0.0911
     21 C18         4.6252  -10.7604    2.3946 C.ar      1 <0>        -0.0760
     22 C19         5.3863  -11.6923    3.1165 C.ar      1 <0>        -0.1384
     23 C20         6.6243  -12.1123    2.6828 C.ar      1 <0>         0.1201
     24 C21         7.1500  -11.6128    1.4997 C.ar      1 <0>        -0.1791
     25 C22         6.4176  -10.6947    0.7825 C.ar      1 <0>        -0.1010
     26 C23         5.1647  -10.2650    1.2303 C.ar      1 <0>         0.1471
     27 N3          4.5343   -9.3068    0.4314 N.pl3     1 <0>        -0.6870
     28 O2          7.3306  -13.0160    3.4133 O.3       1 <0>        -0.2971
     29 C24         8.6072  -13.4066    2.9034 C.3       1 <0>         0.0663
     30 C25         9.2471  -14.4211    3.8533 C.3       1 <0>         0.0543
     31 N4          8.4295  -15.6410    3.8900 N.3       1 <0>        -0.5302
     32 C26         8.7350  -16.4443    5.0827 C.3       1 <0>         0.0182
     33 C27         7.8213  -17.6724    5.1120 C.3       1 <0>         0.0631
     34 O3          7.9899  -18.4148    3.9014 O.3       1 <0>        -0.3851
     35 C28         7.7001  -17.6630    2.7198 C.3       1 <0>         0.0639
     36 C29         8.6126  -16.4349    2.6662 C.3       1 <0>         0.0141
     37 C30         5.1947   -6.2404    0.0847 C.2       1 <0>         0.6125
     38 O4          6.2699   -6.0100    0.6062 O.2       1 <0>        -0.5333
     39 N5          4.9867   -5.9097   -1.2052 N.am      1 <0>        -0.8471
     40 H1          1.7364    1.1031    7.1992 H         1 <0>         0.1254
     41 H2          2.2263   -1.2802    6.8282 H         1 <0>         0.1262
     42 H3          2.5565   -2.1293    4.5416 H         1 <0>         0.1282
     43 H4          1.9138    1.8039    2.9967 H         1 <0>         0.1326
     44 H5          1.5843    2.6445    5.2864 H         1 <0>         0.1314
     45 H6          0.4913   -2.4272    2.2312 H         1 <0>         0.1365
     46 H7          0.7707   -4.8510    1.9264 H         1 <0>         0.1373
     47 H8          5.0240   -4.3366    1.8081 H         1 <0>         0.1412
     48 H9          4.7339   -1.9128    2.1035 H         1 <0>         0.1378
     49 H10         1.3775   -9.5849    2.7172 H         1 <0>         0.1121
     50 H11         2.1215  -10.3089    1.2767 H         1 <0>         0.0943
     51 H12         3.4802   -9.8620    3.9461 H         1 <0>         0.0869
     52 H13         2.8426  -11.4027    3.3617 H         1 <0>         0.1073
     53 H14         4.9903  -12.0913    4.0387 H         1 <0>         0.1321
     54 H15         8.1174  -11.9394    1.1475 H         1 <0>         0.1331
     55 H16         6.8167  -10.3000   -0.1401 H         1 <0>         0.1297
     56 H17         4.5604   -9.3993   -0.5338 H         1 <0>         0.4181
     57 H18         8.4826  -13.8586    1.9194 H         1 <0>         0.0621
     58 H19         9.2496  -12.5298    2.8219 H         1 <0>         0.0674
     59 H20        10.2494  -14.6658    3.5019 H         1 <0>         0.0616
     60 H21         9.3073  -13.9938    4.8543 H         1 <0>         0.0887
     61 H22         9.7759  -16.7659    5.0480 H         1 <0>         0.0437
     62 H23         8.5682  -15.8450    5.9777 H         1 <0>         0.0887
     63 H24         8.0829  -18.3004    5.9636 H         1 <0>         0.0995
     64 H25         6.7833  -17.3516    5.2007 H         1 <0>         0.0613
     65 H26         7.8740  -18.2843    1.8413 H         1 <0>         0.0986
     66 H27         6.6586  -17.3420    2.7390 H         1 <0>         0.0608
     67 H28         8.3564  -15.8287    1.7974 H         1 <0>         0.0848
     68 H29         9.6516  -16.7563    2.5930 H         1 <0>         0.0445
     69 H30         4.1298   -6.0933   -1.6209 H         1 <0>         0.4019
     70 H31         5.6941   -5.4881   -1.7179 H         1 <0>         0.4036
@<TRIPOS>BOND
     1    1    6 ar
     2    1    2 ar
     3    1   40 1
     4    2    3 ar
     5    2   41 1
     6    3    4 ar
     7    3   42 1
     8    4    5 ar
     9    4    7 1
    10    5    6 ar
    11    5   43 1
    12    6   44 1
    13    7    8 1
    14    8   13 ar
    15    8    9 ar
    16    9   10 ar
    17    9   45 1
    18   10   11 ar
    19   10   46 1
    20   11   12 ar
    21   11   14 1
    22   12   13 ar
    23   12   47 1
    24   13   48 1
    25   14   18 2
    26   14   15 1
    27   15   16 2
    28   15   37 1
    29   16   27 1
    30   16   17 1
    31   17   18 1
    32   17   19 1
    33   19   20 1
    34   19   49 1
    35   19   50 1
    36   20   21 1
    37   20   51 1
    38   20   52 1
    39   21   26 ar
    40   21   22 ar
    41   22   23 ar
    42   22   53 1
    43   23   24 ar
    44   23   28 1
    45   24   25 ar
    46   24   54 1
    47   25   26 ar
    48   25   55 1
    49   26   27 1
    50   27   56 1
    51   28   29 1
    52   29   30 1
    53   29   57 1
    54   29   58 1
    55   30   31 1
    56   30   59 1
    57   30   60 1
    58   31   36 1
    59   31   32 1
    60   32   33 1
    61   32   61 1
    62   32   62 1
    63   33   34 1
    64   33   63 1
    65   33   64 1
    66   34   35 1
    67   35   36 1
    68   35   65 1
    69   35   66 1
    70   36   67 1
    71   36   68 1
    72   37   38 2
    73   37   39 am
    74   39   69 1
    75   39   70 1
@<TRIPOS>MOLECULE
CHEMBL596079__1
   71    76     0     0     0
SMALL
USER_CHARGES

@<TRIPOS>ATOM
      1 C1          1.5065    0.7513    5.2044 C.ar      1 <0>        -0.1507
      2 C2          1.6127   -0.6158    5.0262 C.ar      1 <0>        -0.0822
      3 C3          1.9461   -1.1282    3.7874 C.ar      1 <0>        -0.1958
      4 C4          2.1745   -0.2697    2.7215 C.ar      1 <0>         0.1196
      5 C5          2.0673    1.1018    2.9031 C.ar      1 <0>        -0.1438
      6 C6          1.7336    1.6089    4.1438 C.ar      1 <0>        -0.0816
      7 O1          2.5030   -0.7712    1.5020 O.3       1 <0>        -0.2594
      8 C7          2.6721   -2.1144    1.3893 C.ar      1 <0>         0.1028
      9 C8          1.5643   -2.9475    1.3038 C.ar      1 <0>        -0.1333
     10 C9          1.7327   -4.3112    1.1897 C.ar      1 <0>        -0.0692
     11 C10         3.0169   -4.8536    1.1598 C.ar      1 <0>        -0.0286
     12 C11         4.1272   -4.0145    1.2454 C.ar      1 <0>        -0.0751
     13 C12         3.9524   -2.6511    1.3540 C.ar      1 <0>        -0.1196
     14 C13         3.2013   -6.3195    1.0377 C.2       1 <0>         0.1712
     15 C14         4.2838   -7.0082    0.3165 C.2       1 <0>        -0.2910
     16 C15         4.0310   -8.3595    0.4813 C.2       1 <0>         0.3726
     17 N1          2.9469   -8.5087    1.2208 N.pl3     1 <0>        -0.3638
     18 N2          2.4315   -7.2509    1.5585 N.2       1 <0>        -0.2656
     19 C16         2.4066   -9.8093    1.6277 C.3       1 <0>         0.1273
     20 C17         3.3414  -10.5149    2.5868 C.3       1 <0>        -0.0936
     21 C18         4.7056  -10.8325    2.0130 C.ar      1 <0>        -0.0752
     22 C19         5.4274  -11.7354    2.8083 C.ar      1 <0>        -0.1241
     23 C20         6.6884  -12.1654    2.4588 C.ar      1 <0>         0.0946
     24 C21         7.2778  -11.7057    1.2896 C.ar      1 <0>        -0.1715
     25 C22         6.5844  -10.8163    0.5011 C.ar      1 <0>        -0.1007
     26 C23         5.3077  -10.3762    0.8635 C.ar      1 <0>         0.1717
     27 N3          4.7206   -9.4492   -0.0024 N.pl3     1 <0>        -0.6855
     28 O2          7.3550  -13.0401    3.2587 O.3       1 <0>        -0.3296
     29 C24         8.6587  -13.4432    2.8343 C.3       1 <0>         0.0260
     30 C25         9.2471  -14.4211    3.8533 C.3       1 <0>        -0.0001
     31 N4          8.4295  -15.6410    3.8900 N.4       1 <0>        -0.3867
     32 C26         8.9021  -16.5152    4.9724 C.3       1 <0>        -0.0438
     33 C27         8.0485  -17.7853    5.0086 C.3       1 <0>         0.0355
     34 O3          8.1196  -18.4376    3.7377 O.3       1 <0>        -0.3558
     35 C28         7.6918  -17.6172    2.6469 C.3       1 <0>         0.0373
     36 C29         8.5446  -16.3467    2.6063 C.3       1 <0>        -0.0499
     37 C30         5.3928   -6.3943   -0.4202 C.2       1 <0>         0.6107
     38 O4          6.4371   -6.1414    0.1516 O.2       1 <0>        -0.5338
     39 N5          5.2560   -6.1099   -1.7305 N.am      1 <0>        -0.8452
     40 H1          1.2414    1.1497    6.1726 H         1 <0>         0.1264
     41 H2          1.4352   -1.2835    5.8562 H         1 <0>         0.1260
     42 H3          2.0292   -2.1960    3.6488 H         1 <0>         0.1280
     43 H4          2.2449    1.7721    2.0751 H         1 <0>         0.1336
     44 H5          1.6497    2.6763    4.2856 H         1 <0>         0.1329
     45 H6          0.5699   -2.5268    1.3270 H         1 <0>         0.1383
     46 H7          0.8708   -4.9587    1.1240 H         1 <0>         0.1374
     47 H8          5.1231   -4.4317    1.2229 H         1 <0>         0.1403
     48 H9          4.8120   -2.0003    1.4159 H         1 <0>         0.1392
     49 H10         1.4426   -9.6594    2.1138 H         1 <0>         0.1157
     50 H11         2.2667  -10.4306    0.7431 H         1 <0>         0.0947
     51 H12         3.4745   -9.8847    3.4661 H         1 <0>         0.0907
     52 H13         2.8735  -11.4475    2.9022 H         1 <0>         0.1085
     53 H14         4.9818  -12.1033    3.7207 H         1 <0>         0.1343
     54 H15         8.2639  -12.0406    1.0032 H         1 <0>         0.1347
     55 H16         7.0331  -10.4527   -0.4115 H         1 <0>         0.1370
     56 H17         4.8003   -9.5755   -0.9608 H         1 <0>         0.4215
     57 H18         8.5897  -13.9300    1.8615 H         1 <0>         0.0860
     58 H19         9.3028  -12.5672    2.7574 H         1 <0>         0.1113
     59 H20        10.2671  -14.6758    3.5655 H         1 <0>         0.1509
     60 H21         9.2529  -13.9578    4.8400 H         1 <0>         0.1448
     61 H22         9.9440  -16.7821    4.7955 H         1 <0>         0.1404
     62 H23         8.8170  -15.9926    5.9252 H         1 <0>         0.1442
     63 H24         8.4243  -18.4544    5.7827 H         1 <0>         0.1434
     64 H25         7.0132  -17.5221    5.2253 H         1 <0>         0.0818
     65 H26         7.8094  -18.1646    1.7117 H         1 <0>         0.1425
     66 H27         6.6442  -17.3482    2.7828 H         1 <0>         0.0815
     67 H28         8.1942  -15.6991    1.8026 H         1 <0>         0.1399
     68 H29         9.5866  -16.6137    2.4303 H         1 <0>         0.1414
     69 H30         4.4237   -6.3115   -2.1861 H         1 <0>         0.4030
     70 H31         5.9897   -5.7038   -2.2178 H         1 <0>         0.4056
     71 H32         7.4647  -15.3947    4.0532 H         1 <0>         0.4299
@<TRIPOS>BOND
     1    1    6 ar
     2    1    2 ar
     3    1   40 1
     4    2    3 ar
     5    2   41 1
     6    3    4 ar
     7    3   42 1
     8    4    5 ar
     9    4    7 1
    10    5    6 ar
    11    5   43 1
    12    6   44 1
    13    7    8 1
    14    8   13 ar
    15    8    9 ar
    16    9   10 ar
    17    9   45 1
    18   10   11 ar
    19   10   46 1
    20   11   12 ar
    21   11   14 1
    22   12   13 ar
    23   12   47 1
    24   13   48 1
    25   14   18 2
    26   14   15 1
    27   15   16 2
    28   15   37 1
    29   16   27 1
    30   16   17 1
    31   17   18 1
    32   17   19 1
    33   19   20 1
    34   19   49 1
    35   19   50 1
    36   20   21 1
    37   20   51 1
    38   20   52 1
    39   21   26 ar
    40   21   22 ar
    41   22   23 ar
    42   22   53 1
    43   23   24 ar
    44   23   28 1
    45   24   25 ar
    46   24   54 1
    47   25   26 ar
    48   25   55 1
    49   26   27 1
    50   27   56 1
    51   28   29 1
    52   29   30 1
    53   29   57 1
    54   29   58 1
    55   30   31 1
    56   30   59 1
    57   30   60 1
    58   31   36 1
    59   31   32 1
    60   31   71 1
    61   32   33 1
    62   32   61 1
    63   32   62 1
    64   33   34 1
    65   33   63 1
    66   33   64 1
    67   34   35 1
    68   35   36 1
    69   35   65 1
    70   35   66 1
    71   36   67 1
    72   36   68 1
    73   37   38 2
    74   37   39 am
    75   39   69 1
    76   39   70 1
@<TRIPOS>MOLECULE
CHEMBL314049
   48    52     0     0     0
SMALL
USER_CHARGES

@<TRIPOS>ATOM
      1 C1          3.5163    0.5891    2.0003 C.3       1 <0>        -0.1173
      2 C2          2.4277    1.5998    2.2541 C.ar      1 <0>        -0.0691
      3 C3          2.7192    2.9501    2.2327 C.ar      1 <0>        -0.1053
      4 C4          1.7216    3.8785    2.4658 C.ar      1 <0>        -0.0954
      5 C5          0.4283    3.4596    2.7207 C.ar      1 <0>        -0.1090
      6 C6          0.1294    2.1108    2.7431 C.ar      1 <0>        -0.0354
      7 C7          1.1296    1.1751    2.5039 C.ar      1 <0>         0.1351
      8 N1          0.8301   -0.1906    2.5204 N.pl3     1 <0>        -0.6413
      9 C8          0.4381   -0.7986    3.6998 C.2       1 <0>         0.4971
     10 C9          0.4445   -0.0433    4.9507 C.2       1 <0>        -0.0744
     11 C10         0.7725    1.2452    5.2928 C.2       1 <0>         0.0409
     12 N2          0.5785    1.3731    6.6078 N.2       1 <0>        -0.4668
     13 C11         0.1488    0.2399    7.1051 C.2       1 <0>         0.1973
     14 N3          0.0493   -0.6683    6.1192 N.pl3     1 <0>        -0.3640
     15 C12        -0.3432   -2.0007    6.0665 C.ar      1 <0>         0.0570
     16 C13        -0.7466   -2.6591    7.2212 C.ar      1 <0>        -0.1112
     17 C14        -1.1361   -3.9818    7.1659 C.ar      1 <0>        -0.1045
     18 C15        -1.1287   -4.6658    5.9610 C.ar      1 <0>        -0.1092
     19 C16        -0.7304   -4.0299    4.7992 C.ar      1 <0>         0.2010
     20 C17        -0.3317   -2.6819    4.8408 C.ar      1 <0>         0.1383
     21 N4          0.0535   -2.0562    3.6971 N.2       1 <0>        -0.5388
     22 N5         -0.7249   -4.7247    3.5872 N.pl3     1 <0>        -0.6619
     23 C18         0.4994   -5.3733    3.0914 C.3       1 <0>         0.1188
     24 C19         0.1627   -6.8220    2.7202 C.3       1 <0>         0.0463
     25 O1         -0.9629   -6.8327    1.8389 O.3       1 <0>        -0.3804
     26 C20        -2.1610   -6.3052    2.4135 C.3       1 <0>         0.0467
     27 C21        -1.9448   -4.8348    2.7717 C.3       1 <0>         0.1163
     28 Cl1        -1.4938    1.5853    3.0637 Cl        1 <0>        -0.0500
     29 H1          3.5744    0.3780    0.9326 H         1 <0>         0.0787
     30 H2          4.4704    0.9887    2.3441 H         1 <0>         0.0760
     31 H3          3.2916   -0.3304    2.5408 H         1 <0>         0.0695
     32 H4          3.7279    3.2809    2.0340 H         1 <0>         0.1383
     33 H5          1.9528    4.9333    2.4491 H         1 <0>         0.1404
     34 H6         -0.3486    4.1874    2.9027 H         1 <0>         0.1418
     35 H7          0.8972   -0.7118    1.7051 H         1 <0>         0.4253
     36 H8          1.1237    2.0147    4.6212 H         1 <0>         0.1823
     37 H9         -0.0882    0.0632    8.1439 H         1 <0>         0.2155
     38 H10        -0.7550   -2.1343    8.1651 H         1 <0>         0.1324
     39 H11        -1.4486   -4.4872    8.0678 H         1 <0>         0.1373
     40 H12        -1.4351   -5.7009    5.9290 H         1 <0>         0.1335
     41 H13         0.8645   -4.8441    2.2112 H         1 <0>         0.0600
     42 H14         1.2622   -5.3616    3.8700 H         1 <0>         0.0732
     43 H15         1.0186   -7.2788    2.2233 H         1 <0>         0.0988
     44 H16        -0.0768   -7.3830    3.6236 H         1 <0>         0.0515
     45 H17        -2.9770   -6.3902    1.6958 H         1 <0>         0.0991
     46 H18        -2.4090   -6.8643    3.3156 H         1 <0>         0.0513
     47 H19        -2.7998   -4.4666    3.3386 H         1 <0>         0.0743
     48 H20        -1.8299   -4.2505    1.8587 H         1 <0>         0.0598
@<TRIPOS>BOND
     1    1    2 1
     2    1   29 1
     3    1   30 1
     4    1   31 1
     5    2    7 ar
     6    2    3 ar
     7    3    4 ar
     8    3   32 1
     9    4    5 ar
    10    4   33 1
    11    5    6 ar
    12    5   34 1
    13    6    7 ar
    14    6   28 1
    15    7    8 1
    16    8    9 1
    17    8   35 1
    18    9   21 2
    19    9   10 1
    20   10   14 1
    21   10   11 2
    22   11   12 1
    23   11   36 1
    24   12   13 2
    25   13   14 1
    26   13   37 1
    27   14   15 1
    28   15   20 ar
    29   15   16 ar
    30   16   17 ar
    31   16   38 1
    32   17   18 ar
    33   17   39 1
    34   18   19 ar
    35   18   40 1
    36   19   20 ar
    37   19   22 1
    38   20   21 1
    39   22   27 1
    40   22   23 1
    41   23   24 1
    42   23   41 1
    43   23   42 1
    44   24   25 1
    45   24   43 1
    46   24   44 1
    47   25   26 1
    48   26   27 1
    49   26   45 1
    50   26   46 1
    51   27   47 1
    52   27   48 1
@<TRIPOS>MOLECULE
CHEMBL574738
   69    72     0     0     0
SMALL
USER_CHARGES

@<TRIPOS>ATOM
      1 C1         -1.8363    1.8103   -1.4722 C.3       1 <0>        -0.1886
      2 C2         -1.6365    0.2944   -1.4178 C.3       1 <0>        -0.0094
      3 N1         -2.9083   -0.3550   -1.0733 N.4       1 <0>        -0.3871
      4 C3         -3.3047    0.0354    0.2861 C.3       1 <0>        -0.0052
      5 C4         -4.6389   -0.6260    0.6384 C.3       1 <0>         0.0283
      6 N2         -4.4966   -2.0863    0.5514 N.3       1 <0>        -0.5297
      7 C5         -4.0759   -2.4902   -0.7977 C.3       1 <0>         0.0223
      8 C6         -2.7463   -1.8135   -1.1381 C.3       1 <0>        -0.0008
      9 C7         -5.7431   -2.7606    0.9381 C.3       1 <0>         0.0809
     10 C8         -5.4922   -4.2403    1.0747 C.ar      1 <0>        -0.0649
     11 C9         -5.8432   -5.0974    0.0476 C.ar      1 <0>        -0.0933
     12 C10        -5.6142   -6.4537    0.1696 C.ar      1 <0>        -0.0875
     13 C11        -5.0308   -6.9569    1.3252 C.ar      1 <0>         0.1812
     14 C12        -4.6796   -6.0937    2.3545 C.ar      1 <0>        -0.1024
     15 C13        -4.9064   -4.7374    2.2242 C.ar      1 <0>        -0.1362
     16 C14        -4.5199   -3.7991    3.3383 C.3       1 <0>         0.5103
     17 F1         -3.9503   -4.5296    4.3867 F         1 <0>        -0.1764
     18 F2         -3.5923   -2.8665    2.8619 F         1 <0>        -0.1629
     19 F3         -5.6583   -3.1301    3.8007 F         1 <0>        -0.1766
     20 N3         -4.7978   -8.3308    1.4521 N.am      1 <0>        -0.6826
     21 C15        -4.4882   -9.0650    0.3651 C.2       1 <0>         0.7088
     22 O1         -4.3176   -8.5199   -0.7083 O.2       1 <0>        -0.5536
     23 N4         -4.3676  -10.4034    0.4679 N.am      1 <0>        -0.6758
     24 C16        -3.9415  -11.1553   -0.6351 C.ar      1 <0>         0.1613
     25 C17        -3.0319  -10.6150   -1.5342 C.ar      1 <0>        -0.1044
     26 C18        -2.6123  -11.3563   -2.6210 C.ar      1 <0>        -0.0920
     27 C19        -3.0999  -12.6406   -2.8148 C.ar      1 <0>         0.0838
     28 C20        -4.0092  -13.1809   -1.9170 C.ar      1 <0>        -0.0898
     29 C21        -4.4244  -12.4429   -0.8262 C.ar      1 <0>        -0.1275
     30 O2         -2.6868  -13.3700   -3.8854 O.3       1 <0>        -0.2419
     31 C22        -1.4475  -13.9171   -3.8425 C.ar      1 <0>         0.3843
     32 C23        -0.9333  -14.5842   -4.9476 C.ar      1 <0>        -0.3092
     33 C24         0.3448  -15.1285   -4.8538 C.ar      1 <0>         0.4598
     34 N5          1.0234  -14.9910   -3.7165 N.ar      1 <0>        -0.5925
     35 C25         0.5000  -14.3508   -2.6911 C.ar      1 <0>         0.3761
     36 N6         -0.7041  -13.8182   -2.7438 N.ar      1 <0>        -0.6017
     37 N7          0.9023  -15.8038   -5.9283 N.pl3     1 <0>        -0.7108
     38 C26         0.1458  -15.9492   -7.1744 C.3       1 <0>         0.0880
     39 H1         -0.8926    2.2922   -1.7278 H         1 <0>         0.1065
     40 H2         -2.5838    2.0514   -2.2280 H         1 <0>         0.0795
     41 H3         -2.1748    2.1673   -0.4995 H         1 <0>         0.0804
     42 H4         -1.2980   -0.0626   -2.3904 H         1 <0>         0.1302
     43 H5         -0.8890    0.0533   -0.6620 H         1 <0>         0.1299
     44 H6         -2.5411   -0.2873    0.9940 H         1 <0>         0.1386
     45 H7         -3.4119    1.1189    0.3362 H         1 <0>         0.1368
     46 H8         -4.9259   -0.3484    1.6526 H         1 <0>         0.1238
     47 H9         -5.4058   -0.2930   -0.0610 H         1 <0>         0.0621
     48 H10        -3.9521   -3.5727   -0.8311 H         1 <0>         0.1246
     49 H11        -4.8335   -2.1879   -1.5207 H         1 <0>         0.0622
     50 H12        -2.4395   -2.1006   -2.1439 H         1 <0>         0.1352
     51 H13        -1.9856   -2.1267   -0.4230 H         1 <0>         0.1378
     52 H14        -6.0916   -2.3617    1.8908 H         1 <0>         0.1056
     53 H15        -6.5010   -2.5896    0.1736 H         1 <0>         0.0665
     54 H16        -6.2972   -4.7056   -0.8506 H         1 <0>         0.1368
     55 H17        -5.8888   -7.1226   -0.6327 H         1 <0>         0.1503
     56 H18        -4.2257   -6.4819    3.2544 H         1 <0>         0.1458
     57 H19        -4.8592   -8.7548    2.3223 H         1 <0>         0.4154
     58 H20        -4.5758  -10.8463    1.3054 H         1 <0>         0.4130
     59 H21        -2.6528   -9.6149   -1.3838 H         1 <0>         0.1404
     60 H22        -1.9048  -10.9362   -3.3205 H         1 <0>         0.1293
     61 H23        -4.3889  -14.1804   -2.0687 H         1 <0>         0.1369
     62 H24        -5.1283  -12.8655   -0.1245 H         1 <0>         0.1361
     63 H25        -1.5103  -14.6785   -5.8557 H         1 <0>         0.1488
     64 H26         1.0758  -14.2566   -1.7822 H         1 <0>         0.2008
     65 H27         1.7933  -16.1802   -5.8551 H         1 <0>         0.4136
     66 H28         0.7419  -16.5046   -7.8986 H         1 <0>         0.0865
     67 H29        -0.7804  -16.4886   -6.9763 H         1 <0>         0.0628
     68 H30        -0.0868  -14.9627   -7.5754 H         1 <0>         0.0620
     69 H31        -3.6209   -0.0666   -1.7269 H         1 <0>         0.4195
@<TRIPOS>BOND
     1    1    2 1
     2    1   39 1
     3    1   40 1
     4    1   41 1
     5    2    3 1
     6    2   42 1
     7    2   43 1
     8    3    8 1
     9    3    4 1
    10    3   69 1
    11    4    5 1
    12    4   44 1
    13    4   45 1
    14    5    6 1
    15    5   46 1
    16    5   47 1
    17    6    7 1
    18    6    9 1
    19    7    8 1
    20    7   48 1
    21    7   49 1
    22    8   50 1
    23    8   51 1
    24    9   10 1
    25    9   52 1
    26    9   53 1
    27   10   15 ar
    28   10   11 ar
    29   11   12 ar
    30   11   54 1
    31   12   13 ar
    32   12   55 1
    33   13   14 ar
    34   13   20 1
    35   14   15 ar
    36   14   56 1
    37   15   16 1
    38   16   17 1
    39   16   18 1
    40   16   19 1
    41   20   21 am
    42   20   57 1
    43   21   22 2
    44   21   23 am
    45   23   24 1
    46   23   58 1
    47   24   29 ar
    48   24   25 ar
    49   25   26 ar
    50   25   59 1
    51   26   27 ar
    52   26   60 1
    53   27   28 ar
    54   27   30 1
    55   28   29 ar
    56   28   61 1
    57   29   62 1
    58   30   31 1
    59   31   36 ar
    60   31   32 ar
    61   32   33 ar
    62   32   63 1
    63   33   34 ar
    64   33   37 1
    65   34   35 ar
    66   35   36 ar
    67   35   64 1
    68   37   38 1
    69   37   65 1
    70   38   66 1
    71   38   67 1
    72   38   68 1
@<TRIPOS>MOLECULE
CHEMBL574738__1
   69    72     0     0     0
SMALL
USER_CHARGES

@<TRIPOS>ATOM
      1 C1          0.0759    1.5438    0.6037 C.3       1 <0>        -0.1550
      2 C2          0.0819    0.0240    0.4269 C.3       1 <0>         0.0497
      3 N1         -1.3011   -0.4668    0.3613 N.3       1 <0>        -0.5383
      4 C3         -1.9905   -0.2720    1.6446 C.3       1 <0>         0.0216
      5 C4         -3.4418   -0.7401    1.5167 C.3       1 <0>        -0.0034
      6 N2         -3.4673   -2.1590    1.1380 N.4       1 <0>        -0.3925
      7 C5         -2.7968   -2.3340   -0.1571 C.3       1 <0>        -0.0069
      8 C6         -1.3401   -1.8792   -0.0432 C.3       1 <0>         0.0266
      9 C7         -4.8606   -2.6126    1.0329 C.3       1 <0>         0.0216
     10 C8         -4.8877   -4.0989    0.7859 C.ar      1 <0>        -0.1314
     11 C9         -5.0212   -4.5819   -0.5031 C.ar      1 <0>        -0.0646
     12 C10        -5.0460   -5.9433   -0.7329 C.ar      1 <0>        -0.0851
     13 C11        -4.9367   -6.8279    0.3323 C.ar      1 <0>         0.2104
     14 C12        -4.8028   -6.3399    1.6253 C.ar      1 <0>        -0.0958
     15 C13        -4.7734   -4.9769    1.8479 C.ar      1 <0>        -0.1409
     16 C14        -4.6219   -4.4463    3.2502 C.3       1 <0>         0.5070
     17 F1         -4.6433   -5.5117    4.1567 F         1 <0>        -0.1547
     18 F2         -3.4060   -3.7635    3.3616 F         1 <0>        -0.1851
     19 F3         -5.6759   -3.5713    3.5341 F         1 <0>        -0.1640
     20 N3         -4.9619   -8.2081    0.1029 N.am      1 <0>        -0.6837
     21 C15        -4.4196   -8.7143   -1.0223 C.2       1 <0>         0.7086
     22 O1         -3.8266   -7.9843   -1.7931 O.2       1 <0>        -0.5502
     23 N4         -4.5345  -10.0295   -1.2932 N.am      1 <0>        -0.6719
     24 C16        -3.8805  -10.5754   -2.4057 C.ar      1 <0>         0.1552
     25 C17        -2.6449  -10.0782   -2.7980 C.ar      1 <0>        -0.1020
     26 C18        -2.0009  -10.6166   -3.8944 C.ar      1 <0>        -0.0924
     27 C19        -2.5883  -11.6538   -4.6042 C.ar      1 <0>         0.0887
     28 C20        -3.8231  -12.1507   -4.2129 C.ar      1 <0>        -0.0905
     29 C21        -4.4651  -11.6176   -3.1127 C.ar      1 <0>        -0.1241
     30 O2         -1.9539  -12.1832   -5.6840 O.3       1 <0>        -0.2421
     31 C22        -0.8993  -13.0053   -5.4625 C.ar      1 <0>         0.3838
     32 C23        -0.1485  -13.4903   -6.5263 C.ar      1 <0>        -0.3084
     33 C24         0.9254  -14.3313   -6.2467 C.ar      1 <0>         0.4604
     34 N5          1.1921  -14.6382   -4.9788 N.ar      1 <0>        -0.5919
     35 C25         0.4556  -14.1572   -3.9982 C.ar      1 <0>         0.3765
     36 N6         -0.5651  -13.3548   -4.2232 N.ar      1 <0>        -0.6028
     37 N7          1.7048  -14.8418   -7.2729 N.pl3     1 <0>        -0.7101
     38 C26         1.4012  -14.4974   -8.6641 C.3       1 <0>         0.0876
     39 H1          1.1021    1.9080    0.6524 H         1 <0>         0.0710
     40 H2         -0.4339    2.0059   -0.2417 H         1 <0>         0.0692
     41 H3         -0.4448    1.8002    1.5263 H         1 <0>         0.0560
     42 H4          0.6026   -0.2324   -0.4957 H         1 <0>         0.0890
     43 H5          0.5917   -0.4381    1.2723 H         1 <0>         0.0460
     44 H6         -1.4883   -0.8519    2.4189 H         1 <0>         0.0601
     45 H7         -1.9714    0.7847    1.9111 H         1 <0>         0.1280
     46 H8         -3.9511   -0.6097    2.4716 H         1 <0>         0.1352
     47 H9         -3.9476   -0.1508    0.7518 H         1 <0>         0.1417
     48 H10        -2.8278   -3.3853   -0.4432 H         1 <0>         0.1337
     49 H11        -3.3058   -1.7365   -0.9134 H         1 <0>         0.1410
     50 H12        -0.8464   -1.9950   -1.0080 H         1 <0>         0.1252
     51 H13        -0.8272   -2.4856    0.7034 H         1 <0>         0.0590
     52 H14        -5.3865   -2.3888    1.9611 H         1 <0>         0.1450
     53 H15        -5.3489   -2.0978    0.2055 H         1 <0>         0.1515
     54 H16        -5.1065   -3.8935   -1.3309 H         1 <0>         0.1522
     55 H17        -5.1506   -6.3199   -1.7397 H         1 <0>         0.1607
     56 H18        -4.7176   -7.0252    2.4556 H         1 <0>         0.1562
     57 H19        -5.3697   -8.8006    0.7538 H         1 <0>         0.4195
     58 H20        -5.0700  -10.5982   -0.7181 H         1 <0>         0.4141
     59 H21        -2.1878   -9.2703   -2.2459 H         1 <0>         0.1387
     60 H22        -1.0398  -10.2299   -4.1996 H         1 <0>         0.1305
     61 H23        -4.2803  -12.9577   -4.7663 H         1 <0>         0.1381
     62 H24        -5.4240  -12.0080   -2.8052 H         1 <0>         0.1366
     63 H25        -0.3919  -13.2222   -7.5438 H         1 <0>         0.1492
     64 H26         0.6976  -14.4252   -2.9804 H         1 <0>         0.2009
     65 H27         2.4512  -15.4270   -7.0699 H         1 <0>         0.4139
     66 H28         0.3926  -14.8302   -8.9090 H         1 <0>         0.0630
     67 H29         1.4691  -13.4173   -8.7942 H         1 <0>         0.0624
     68 H30         2.1162  -14.9885   -9.3243 H         1 <0>         0.0869
     69 H31        -2.9890   -2.7030    1.8403 H         1 <0>         0.4158
@<TRIPOS>BOND
     1    1    2 1
     2    1   39 1
     3    1   40 1
     4    1   41 1
     5    2    3 1
     6    2   42 1
     7    2   43 1
     8    3    8 1
     9    3    4 1
    10    4    5 1
    11    4   44 1
    12    4   45 1
    13    5    6 1
    14    5   46 1
    15    5   47 1
    16    6    7 1
    17    6    9 1
    18    6   69 1
    19    7    8 1
    20    7   48 1
    21    7   49 1
    22    8   50 1
    23    8   51 1
    24    9   10 1
    25    9   52 1
    26    9   53 1
    27   10   15 ar
    28   10   11 ar
    29   11   12 ar
    30   11   54 1
    31   12   13 ar
    32   12   55 1
    33   13   14 ar
    34   13   20 1
    35   14   15 ar
    36   14   56 1
    37   15   16 1
    38   16   17 1
    39   16   18 1
    40   16   19 1
    41   20   21 am
    42   20   57 1
    43   21   22 2
    44   21   23 am
    45   23   24 1
    46   23   58 1
    47   24   29 ar
    48   24   25 ar
    49   25   26 ar
    50   25   59 1
    51   26   27 ar
    52   26   60 1
    53   27   28 ar
    54   27   30 1
    55   28   29 ar
    56   28   61 1
    57   29   62 1
    58   30   31 1
    59   31   36 ar
    60   31   32 ar
    61   32   33 ar
    62   32   63 1
    63   33   34 ar
    64   33   37 1
    65   34   35 ar
    66   35   36 ar
    67   35   64 1
    68   37   38 1
    69   37   65 1
    70   38   66 1
    71   38   67 1
    72   38   68 1
@<TRIPOS>MOLECULE
CHEMBL493986
   53    57     0     0     0
SMALL
USER_CHARGES

@<TRIPOS>ATOM
      1 C1         -0.0523    1.5020    0.0223 C.3       1 <0>        -0.1269
      2 C2         -0.0142   -0.0044    0.0081 C.2       1 <0>         0.0341
      3 C3         -0.6896   -0.7219   -0.9851 C.2       1 <0>        -0.2246
      4 C4         -0.6501   -2.0757   -0.9904 C.2       1 <0>         0.1450
      5 N1          0.0398   -2.7615   -0.0409 N.am      1 <0>        -0.4554
      6 C5          0.7055   -2.1145    0.9346 C.2       1 <0>         0.5264
      7 O1          1.3197   -2.7461    1.7782 O.2       1 <0>        -0.5249
      8 C6          0.6953   -0.6991    0.9758 C.2       1 <0>        -0.1853
      9 C7          1.4267    0.0278    2.0391 C.ar      1 <0>        -0.0416
     10 C8          2.5121    0.8525    1.6997 C.ar      1 <0>        -0.0486
     11 C9          3.2004    1.5306    2.6555 C.ar      1 <0>        -0.1234
     12 C10         2.8281    1.4116    4.0040 C.ar      1 <0>         0.2140
     13 C11         1.7326    0.5813    4.3582 C.ar      1 <0>        -0.2111
     14 C12         1.0316   -0.1064    3.3597 C.ar      1 <0>        -0.0259
     15 C13         1.3810    0.4810    5.7179 C.ar      1 <0>         0.2449
     16 N2          2.0832    1.1610    6.5999 N.ar      1 <0>        -0.5645
     17 C14         3.1056    1.9308    6.2321 C.ar      1 <0>         0.5689
     18 N3          3.4804    2.0633    4.9746 N.ar      1 <0>        -0.5740
     19 N4          3.8025    2.6197    7.2085 N.pl3     1 <0>        -0.8198
     20 C15         0.0582   -4.1611   -0.0775 C.ar      1 <0>         0.1466
     21 C16        -0.9182   -4.8856    0.5950 C.ar      1 <0>        -0.1497
     22 C17        -0.8964   -6.2658    0.5559 C.ar      1 <0>        -0.0468
     23 C18         0.0921   -6.9270   -0.1491 C.ar      1 <0>        -0.1462
     24 C19         1.0725   -6.2161   -0.8246 C.ar      1 <0>         0.2093
     25 C20         1.0460   -4.8213   -0.7884 C.ar      1 <0>        -0.1620
     26 N5          1.9717   -7.0661   -1.4707 N.pl3     1 <0>        -0.7419
     27 C21         1.6010   -8.4640   -1.2353 C.3       1 <0>         0.1229
     28 C22         0.3441   -8.4044   -0.3520 C.3       1 <0>        -0.0286
     29 C23         0.6020   -9.0913    0.9906 C.3       1 <0>        -0.1370
     30 C24        -0.8420   -9.0550   -1.0668 C.3       1 <0>        -0.1355
     31 H1          0.7761    1.8920   -0.5691 H         1 <0>         0.0843
     32 H2         -0.9955    1.8457   -0.4025 H         1 <0>         0.0767
     33 H3          0.0350    1.8580    1.0488 H         1 <0>         0.0767
     34 H4         -1.2434   -0.1956   -1.7484 H         1 <0>         0.1510
     35 H5         -1.1757   -2.6194   -1.7615 H         1 <0>         0.1635
     36 H6          2.8041    0.9488    0.6643 H         1 <0>         0.1302
     37 H7          4.0330    2.1600    2.3781 H         1 <0>         0.1382
     38 H8          0.1940   -0.7377    3.6172 H         1 <0>         0.1315
     39 H9          0.5540   -0.1393    6.0302 H         1 <0>         0.1778
     40 H10         3.5432    2.5365    8.1395 H         1 <0>         0.4144
     41 H11         4.5505    3.1860    6.9622 H         1 <0>         0.4152
     42 H12        -1.6911   -4.3712    1.1467 H         1 <0>         0.1274
     43 H13        -1.6542   -6.8309    1.0782 H         1 <0>         0.1291
     44 H14         1.8009   -4.2550   -1.3137 H         1 <0>         0.1219
     45 H15         2.7310   -6.7739   -1.9989 H         1 <0>         0.4138
     46 H16         1.3764   -8.9599   -2.1796 H         1 <0>         0.0715
     47 H17         2.4043   -8.9857   -0.7150 H         1 <0>         0.0711
     48 H18        -0.2671   -8.9651    1.6362 H         1 <0>         0.0628
     49 H19         0.7814  -10.1539    0.8265 H         1 <0>         0.0625
     50 H20         1.4754   -8.6444    1.4655 H         1 <0>         0.0588
     51 H21        -0.9841   -8.5825   -2.0388 H         1 <0>         0.0581
     52 H22        -0.6444  -10.1180   -1.2049 H         1 <0>         0.0625
     53 H23        -1.7425   -8.9279   -0.4659 H         1 <0>         0.0627
@<TRIPOS>BOND
     1    1    2 1
     2    1   31 1
     3    1   32 1
     4    1   33 1
     5    2    8 2
     6    2    3 1
     7    3    4 2
     8    3   34 1
     9    4    5 1
    10    4   35 1
    11    5    6 am
    12    5   20 1
    13    6    7 2
    14    6    8 1
    15    8    9 1
    16    9   14 ar
    17    9   10 ar
    18   10   11 ar
    19   10   36 1
    20   11   12 ar
    21   11   37 1
    22   12   18 ar
    23   12   13 ar
    24   13   14 ar
    25   13   15 ar
    26   14   38 1
    27   15   16 ar
    28   15   39 1
    29   16   17 ar
    30   17   18 ar
    31   17   19 1
    32   19   40 1
    33   19   41 1
    34   20   25 ar
    35   20   21 ar
    36   21   22 ar
    37   21   42 1
    38   22   23 ar
    39   22   43 1
    40   23   28 1
    41   23   24 ar
    42   24   25 ar
    43   24   26 1
    44   25   44 1
    45   26   27 1
    46   26   45 1
    47   27   28 1
    48   27   46 1
    49   27   47 1
    50   28   29 1
    51   28   30 1
    52   29   48 1
    53   29   49 1
    54   29   50 1
    55   30   51 1
    56   30   52 1
    57   30   53 1
@<TRIPOS>MOLECULE
CHEMBL215952
   31    33     0     0     0
SMALL
USER_CHARGES

@<TRIPOS>ATOM
      1 C1         -0.0184    1.5028    0.0103 C.3       1 <0>        -0.1207
      2 C2          0.0021   -0.0041    0.0020 C.ar      1 <0>        -0.0715
      3 C3          0.0057   -0.6890   -1.1964 C.ar      1 <0>        -0.1192
      4 C4          0.0240   -2.0719   -1.2055 C.ar      1 <0>        -0.1132
      5 C5          0.0391   -2.7765   -0.0150 C.ar      1 <0>        -0.1239
      6 C6          0.0361   -2.1022    1.1890 C.ar      1 <0>        -0.1031
      7 C7          0.0231   -0.7085    1.2041 C.ar      1 <0>        -0.0499
      8 C8          0.0253    0.0221    2.4952 C.ar      1 <0>        -0.0694
      9 C9          0.9434    1.0634    2.7043 C.ar      1 <0>        -0.0512
     10 C10         0.9673    1.7494    3.8777 C.ar      1 <0>        -0.1215
     11 C11         0.0647    1.4185    4.9006 C.ar      1 <0>         0.2144
     12 C12        -0.8676    0.3673    4.6991 C.ar      1 <0>        -0.2135
     13 C13        -0.8811   -0.3246    3.4813 C.ar      1 <0>        -0.0419
     14 C14        -1.7617    0.0567    5.7415 C.ar      1 <0>         0.2440
     15 N1         -1.6937    0.7544    6.8558 N.ar      1 <0>        -0.5632
     16 C15        -0.8059    1.7346    7.0108 C.ar      1 <0>         0.5704
     17 N2          0.0557    2.0698    6.0700 N.ar      1 <0>        -0.5736
     18 N3         -0.7867    2.4298    8.2063 N.pl3     1 <0>        -0.8183
     19 H1          1.0042    1.8801    0.0026 H         1 <0>         0.0728
     20 H2         -0.5455    1.8639   -0.8728 H         1 <0>         0.0677
     21 H3         -0.5286    1.8543    0.9071 H         1 <0>         0.0704
     22 H4         -0.0060   -0.1439   -2.1287 H         1 <0>         0.1241
     23 H5          0.0261   -2.6037   -2.1454 H         1 <0>         0.1230
     24 H6          0.0530   -3.8563   -0.0279 H         1 <0>         0.1241
     25 H7          0.0476   -2.6533    2.1177 H         1 <0>         0.1241
     26 H8          1.6410    1.3230    1.9217 H         1 <0>         0.1340
     27 H9          1.6801    2.5477    4.0229 H         1 <0>         0.1392
     28 H10        -1.5889   -1.1233    3.3154 H         1 <0>         0.1359
     29 H11        -2.4871   -0.7356    5.6292 H         1 <0>         0.1789
     30 H12        -1.4120    2.1995    8.9113 H         1 <0>         0.4151
     31 H13        -0.1480    3.1475    8.3399 H         1 <0>         0.4160
@<TRIPOS>BOND
     1    1    2 1
     2    1   19 1
     3    1   20 1
     4    1   21 1
     5    2    7 ar
     6    2    3 ar
     7    3    4 ar
     8    3   22 1
     9    4    5 ar
    10    4   23 1
    11    5    6 ar
    12    5   24 1
    13    6    7 ar
    14    6   25 1
    15    7    8 1
    16    8   13 ar
    17    8    9 ar
    18    9   10 ar
    19    9   26 1
    20   10   11 ar
    21   10   27 1
    22   11   17 ar
    23   11   12 ar
    24   12   13 ar
    25   12   14 ar
    26   13   28 1
    27   14   15 ar
    28   14   29 1
    29   15   16 ar
    30   16   17 ar
    31   16   18 1
    32   18   30 1
    33   18   31 1
@<TRIPOS>MOLECULE
CHEMBL108907
   53    57     0     0     0
SMALL
USER_CHARGES

@<TRIPOS>ATOM
      1 C1          2.6832   -0.2415    1.3971 C.3       1 <0>        -0.1131
      2 C2          1.5064   -0.8860    0.7109 C.ar      1 <0>        -0.0702
      3 C3          1.6958   -1.6159   -0.4467 C.ar      1 <0>        -0.1090
      4 C4          0.6172   -2.2082   -1.0770 C.ar      1 <0>        -0.0962
      5 C5         -0.6551   -2.0725   -0.5517 C.ar      1 <0>        -0.1119
      6 C6         -0.8519   -1.3440    0.6057 C.ar      1 <0>        -0.0101
      7 C7          0.2317   -0.7516    1.2446 C.ar      1 <0>         0.1475
      8 N1          0.0374   -0.0180    2.4190 N.pl3     1 <0>        -0.6423
      9 C8         -0.3520   -0.6614    3.5801 C.2       1 <0>         0.4965
     10 C9         -0.4456    0.0835    4.8338 C.2       1 <0>        -0.0724
     11 C10        -0.2243    1.3899    5.1932 C.2       1 <0>         0.0476
     12 N2         -0.4751    1.4945    6.5007 N.2       1 <0>        -0.4625
     13 C11        -0.8396    0.3300    6.9771 C.2       1 <0>         0.1986
     14 N3         -0.8370   -0.5764    5.9842 N.pl3     1 <0>        -0.3700
     15 C12        -1.1300   -1.9331    5.9117 C.ar      1 <0>         0.0983
     16 C13        -1.5260   -2.6247    7.0469 C.ar      1 <0>        -0.1793
     17 C14        -1.8172   -3.9777    6.9680 C.ar      1 <0>         0.2015
     18 C15        -1.7136   -4.6466    5.7509 C.ar      1 <0>        -0.1615
     19 C16        -1.3219   -3.9718    4.6180 C.ar      1 <0>        -0.0384
     20 C17        -1.0245   -2.6047    4.6830 C.ar      1 <0>         0.1217
     21 N4         -0.6440   -1.9433    3.5569 N.2       1 <0>        -0.5380
     22 N5         -2.2157   -4.6728    8.1134 N.pl3     1 <0>        -0.6421
     23 C18        -2.4595   -3.9662    9.3804 C.3       1 <0>         0.0991
     24 C19        -3.8292   -4.3927    9.9187 C.3       1 <0>        -0.0229
     25 N6         -3.8793   -5.8566   10.0218 N.4       1 <0>        -0.3839
     26 C20        -3.7759   -6.4559    8.6853 C.3       1 <0>        -0.0235
     27 C21        -2.4090   -6.1308    8.0845 C.3       1 <0>         0.0988
     28 C22        -5.1497   -6.2590   10.6400 C.3       1 <0>        -0.0471
     29 Cl1        -2.4489   -1.1738    1.2648 Cl        1 <0>        -0.0580
     30 H1          3.1098   -0.9386    2.1183 H         1 <0>         0.0739
     31 H2          3.4375    0.0207    0.6552 H         1 <0>         0.0755
     32 H3          2.3535    0.6597    1.9140 H         1 <0>         0.0664
     33 H4          2.6877   -1.7237   -0.8600 H         1 <0>         0.1350
     34 H5          0.7684   -2.7779   -1.9820 H         1 <0>         0.1365
     35 H6         -1.4955   -2.5362   -1.0468 H         1 <0>         0.1367
     36 H7          0.1757    0.9421    2.4195 H         1 <0>         0.4239
     37 H8          0.0943    2.1874    4.5383 H         1 <0>         0.1881
     38 H9         -1.1013    0.1296    8.0055 H         1 <0>         0.2133
     39 H10        -1.6071   -2.1092    7.9925 H         1 <0>         0.1305
     40 H11        -1.9416   -5.7008    5.6963 H         1 <0>         0.1349
     41 H12        -1.2432   -4.4968    3.6774 H         1 <0>         0.1471
     42 H13        -1.6849   -4.2285   10.1010 H         1 <0>         0.0902
     43 H14        -2.4531   -2.8901    9.2068 H         1 <0>         0.1236
     44 H15        -3.9854   -3.9534   10.9039 H         1 <0>         0.1420
     45 H16        -4.6096   -4.0493    9.2396 H         1 <0>         0.1328
     46 H17        -3.8929   -7.5369    8.7616 H         1 <0>         0.1428
     47 H18        -4.5579   -6.0500    8.0435 H         1 <0>         0.1329
     48 H19        -2.3693   -6.4852    7.0544 H         1 <0>         0.1286
     49 H20        -1.6292   -6.6154    8.6720 H         1 <0>         0.0900
     50 H21        -5.9795   -5.9087   10.0261 H         1 <0>         0.1218
     51 H22        -5.1881   -7.3456   10.7171 H         1 <0>         0.1258
     52 H23        -5.2240   -5.8212   11.6355 H         1 <0>         0.1255
     53 H24        -3.1129   -6.1787   10.5936 H         1 <0>         0.4252
@<TRIPOS>BOND
     1    1    2 1
     2    1   30 1
     3    1   31 1
     4    1   32 1
     5    2    7 ar
     6    2    3 ar
     7    3    4 ar
     8    3   33 1
     9    4    5 ar
    10    4   34 1
    11    5    6 ar
    12    5   35 1
    13    6    7 ar
    14    6   29 1
    15    7    8 1
    16    8    9 1
    17    8   36 1
    18    9   21 2
    19    9   10 1
    20   10   14 1
    21   10   11 2
    22   11   12 1
    23   11   37 1
    24   12   13 2
    25   13   14 1
    26   13   38 1
    27   14   15 1
    28   15   20 ar
    29   15   16 ar
    30   16   17 ar
    31   16   39 1
    32   17   18 ar
    33   17   22 1
    34   18   19 ar
    35   18   40 1
    36   19   20 ar
    37   19   41 1
    38   20   21 1
    39   22   27 1
    40   22   23 1
    41   23   24 1
    42   23   42 1
    43   23   43 1
    44   24   25 1
    45   24   44 1
    46   24   45 1
    47   25   26 1
    48   25   28 1
    49   25   53 1
    50   26   27 1
    51   26   46 1
    52   26   47 1
    53   27   48 1
    54   27   49 1
    55   28   50 1
    56   28   51 1
    57   28   52 1
@<TRIPOS>MOLECULE
CHEMBL108907__1
   52    56     0     0     0
SMALL
USER_CHARGES

@<TRIPOS>ATOM
      1 C1          2.6833   -0.2428    1.3963 C.3       1 <0>        -0.1112
      2 C2          1.5060   -0.8866    0.7104 C.ar      1 <0>        -0.0740
      3 C3          1.6946   -1.6164   -0.4474 C.ar      1 <0>        -0.1109
      4 C4          0.6156   -2.2080   -1.0775 C.ar      1 <0>        -0.1012
      5 C5         -0.6565   -2.0718   -0.5517 C.ar      1 <0>        -0.1123
      6 C6         -0.8525   -1.3433    0.6059 C.ar      1 <0>        -0.0117
      7 C7          0.2315   -0.7517    1.2446 C.ar      1 <0>         0.1574
      8 N1          0.0380   -0.0181    2.4191 N.pl3     1 <0>        -0.6509
      9 C8         -0.3514   -0.6615    3.5802 C.2       1 <0>         0.4747
     10 C9         -0.4442    0.0832    4.8340 C.2       1 <0>        -0.0659
     11 C10        -0.2222    1.3895    5.1937 C.2       1 <0>         0.0332
     12 N2         -0.4725    1.4939    6.5012 N.2       1 <0>        -0.4675
     13 C11        -0.8375    0.3295    6.9775 C.2       1 <0>         0.1951
     14 N3         -0.8356   -0.5767    5.9845 N.pl3     1 <0>        -0.3649
     15 C12        -1.1293   -1.9333    5.9119 C.ar      1 <0>         0.1085
     16 C13        -1.5253   -2.6249    7.0471 C.ar      1 <0>        -0.2024
     17 C14        -1.8172   -3.9777    6.9680 C.ar      1 <0>         0.2346
     18 C15        -1.7143   -4.6464    5.7507 C.ar      1 <0>        -0.1731
     19 C16        -1.3226   -3.9716    4.6178 C.ar      1 <0>        -0.0330
     20 C17        -1.0245   -2.6046    4.6830 C.ar      1 <0>         0.0898
     21 N4         -0.6440   -1.9433    3.5568 N.2       1 <0>        -0.5240
     22 N5         -2.2157   -4.6728    8.1134 N.pl3     1 <0>        -0.6254
     23 C18        -2.4027   -6.1313    8.0845 C.3       1 <0>         0.1248
     24 C19        -1.6130   -6.7465    9.2447 C.3       1 <0>         0.0380
     25 N6         -2.0067   -6.0945   10.5009 N.3       1 <0>        -0.5424
     26 C20        -1.6671   -4.6654   10.4888 C.3       1 <0>         0.0381
     27 C21        -2.4531   -3.9658    9.3811 C.3       1 <0>         0.1241
     28 C22        -1.4015   -6.7697   11.6566 C.3       1 <0>         0.0242
     29 Cl1        -2.4492   -1.1725    1.2655 Cl        1 <0>        -0.0551
     30 H1          3.1098   -0.9402    2.1173 H         1 <0>         0.0734
     31 H2          3.4376    0.0191    0.6542 H         1 <0>         0.0722
     32 H3          2.3542    0.6585    1.9135 H         1 <0>         0.0666
     33 H4          2.6864   -1.7246   -0.8610 H         1 <0>         0.1320
     34 H5          0.7662   -2.7776   -1.9826 H         1 <0>         0.1337
     35 H6         -1.4973   -2.5349   -1.0466 H         1 <0>         0.1349
     36 H7          0.1768    0.9419    2.4197 H         1 <0>         0.4209
     37 H8          0.0966    2.1869    4.5388 H         1 <0>         0.1836
     38 H9         -1.0990    0.1290    8.0060 H         1 <0>         0.2125
     39 H10        -1.6059   -2.1095    7.9928 H         1 <0>         0.1309
     40 H11        -1.9428   -5.7006    5.6960 H         1 <0>         0.1356
     41 H12        -1.2445   -4.4965    3.6772 H         1 <0>         0.1416
     42 H13        -3.4610   -6.3671    8.1963 H         1 <0>         0.0742
     43 H14        -2.0340   -6.5291    7.1390 H         1 <0>         0.0887
     44 H15        -1.8279   -7.8133    9.3057 H         1 <0>         0.0883
     45 H16        -0.5461   -6.5989    9.0772 H         1 <0>         0.0394
     46 H17        -1.9212   -4.2230   11.4520 H         1 <0>         0.0881
     47 H18        -0.5995   -4.5468   10.3039 H         1 <0>         0.0386
     48 H19        -2.1177   -2.9325    9.2924 H         1 <0>         0.0848
     49 H20        -3.5164   -3.9893    9.6199 H         1 <0>         0.0741
     50 H21        -0.3155   -6.7347   11.5702 H         1 <0>         0.0264
     51 H22        -1.7093   -6.2669   12.5734 H         1 <0>         0.0710
     52 H23        -1.7305   -7.8085   11.6839 H         1 <0>         0.0717
@<TRIPOS>BOND
     1    1    2 1
     2    1   30 1
     3    1   31 1
     4    1   32 1
     5    2    7 ar
     6    2    3 ar
     7    3    4 ar
     8    3   33 1
     9    4    5 ar
    10    4   34 1
    11    5    6 ar
    12    5   35 1
    13    6    7 ar
    14    6   29 1
    15    7    8 1
    16    8    9 1
    17    8   36 1
    18    9   21 2
    19    9   10 1
    20   10   14 1
    21   10   11 2
    22   11   12 1
    23   11   37 1
    24   12   13 2
    25   13   14 1
    26   13   38 1
    27   14   15 1
    28   15   20 ar
    29   15   16 ar
    30   16   17 ar
    31   16   39 1
    32   17   18 ar
    33   17   22 1
    34   18   19 ar
    35   18   40 1
    36   19   20 ar
    37   19   41 1
    38   20   21 1
    39   22   27 1
    40   22   23 1
    41   23   24 1
    42   23   42 1
    43   23   43 1
    44   24   25 1
    45   24   44 1
    46   24   45 1
    47   25   26 1
    48   25   28 1
    49   26   27 1
    50   26   46 1
    51   26   47 1
    52   27   48 1
    53   27   49 1
    54   28   50 1
    55   28   51 1
    56   28   52 1
@<TRIPOS>MOLECULE
CHEMBL315816
   29    32     0     0     0
SMALL
USER_CHARGES

@<TRIPOS>ATOM
      1 C1         -0.0077    1.3707    0.1941 C.ar      1 <0>        -0.1103
      2 C2          1.1738    2.0901    0.0977 C.ar      1 <0>        -0.0864
      3 C3          2.3833    1.4346   -0.0103 C.ar      1 <0>        -0.1216
      4 C4          2.4234    0.0473   -0.0231 C.ar      1 <0>         0.0878
      5 C5          1.2300   -0.6879    0.0747 C.ar      1 <0>         0.0930
      6 C6          0.0108   -0.0052    0.1837 C.ar      1 <0>        -0.0641
      7 N1          1.2437   -2.0445    0.0639 N.2       1 <0>        -0.4683
      8 C7          2.3696   -2.7190   -0.0379 C.2       1 <0>         0.2916
      9 C8          3.6398   -2.0020   -0.1424 C.2       1 <0>        -0.0677
     10 N2          3.6374   -0.6187   -0.1325 N.pl3     1 <0>        -0.3757
     11 C9          4.9169   -0.2218   -0.2400 C.2       1 <0>         0.1973
     12 N3          5.6922   -1.2753   -0.3143 N.2       1 <0>        -0.4635
     13 C10         4.9531   -2.3859   -0.2584 C.2       1 <0>         0.0393
     14 C11         2.3500   -4.1996   -0.0462 C.ar      1 <0>        -0.1068
     15 C12         3.4355   -4.9281    0.4529 C.ar      1 <0>        -0.0478
     16 C13         3.3675   -6.3098    0.4229 C.ar      1 <0>        -0.1726
     17 C14         2.2394   -6.9211   -0.0945 C.ar      1 <0>         0.1187
     18 N4          1.2310   -6.2081   -0.5581 N.ar      1 <0>        -0.4847
     19 C15         1.2469   -4.8911   -0.5461 C.ar      1 <0>         0.1519
     20 H1         -0.9485    1.8937    0.2823 H         1 <0>         0.1415
     21 H2          1.1473    3.1697    0.1069 H         1 <0>         0.1411
     22 H3          3.2994    2.0015   -0.0854 H         1 <0>         0.1370
     23 H4         -0.9135   -0.5586    0.2595 H         1 <0>         0.1475
     24 H5          5.2532    0.8043   -0.2621 H         1 <0>         0.2172
     25 H6          5.3209   -3.4006   -0.2967 H         1 <0>         0.1887
     26 H7          4.3042   -4.4249    0.8509 H         1 <0>         0.1434
     27 H8          4.1865   -6.9048    0.7991 H         1 <0>         0.1453
     28 H9          2.1835   -7.9993   -0.1195 H         1 <0>         0.1628
     29 H10         0.4002   -4.3420   -0.9307 H         1 <0>         0.1655
@<TRIPOS>BOND
     1    1    6 ar
     2    1    2 ar
     3    1   20 1
     4    2    3 ar
     5    2   21 1
     6    3    4 ar
     7    3   22 1
     8    4   10 1
     9    4    5 ar
    10    5    6 ar
    11    5    7 1
    12    6   23 1
    13    7    8 2
    14    8    9 1
    15    8   14 1
    16    9   13 2
    17    9   10 1
    18   10   11 1
    19   11   12 2
    20   11   24 1
    21   12   13 1
    22   13   25 1
    23   14   19 ar
    24   14   15 ar
    25   15   16 ar
    26   15   26 1
    27   16   17 ar
    28   16   27 1
    29   17   18 ar
    30   17   28 1
    31   18   19 ar
    32   19   29 1
@<TRIPOS>MOLECULE
CHEMBL607707
   57    59     0     0     0
SMALL
USER_CHARGES

@<TRIPOS>ATOM
      1 C1          3.4767   -2.0813    3.6658 C.3       1 <0>        -0.1532
      2 C2          2.7063   -2.8025    2.5580 C.3       1 <0>         0.0507
      3 O1          1.3931   -3.1228    3.0218 O.3       1 <0>        -0.3142
      4 C3          0.5732   -3.7702    2.1536 C.ar      1 <0>         0.1537
      5 C4          1.0297   -4.0892    0.8956 C.ar      1 <0>        -0.1843
      6 C5          0.1876   -4.7579   -0.0058 C.ar      1 <0>         0.1848
      7 C6         -1.1275   -5.0964    0.3956 C.ar      1 <0>        -0.1267
      8 C7         -1.5748   -4.7633    1.6822 C.ar      1 <0>        -0.0578
      9 C8         -0.7286   -4.1117    2.5513 C.ar      1 <0>         0.1161
     10 N1         -1.1714   -3.7834    3.8381 N.am      1 <0>        -0.6443
     11 C9         -2.4807   -3.5562    4.0627 C.2       1 <0>         0.5354
     12 O2         -3.2906   -3.7366    3.1733 O.2       1 <0>        -0.5106
     13 C10        -2.9303   -3.0903    5.3832 C.2       1 <0>        -0.1308
     14 C11        -4.2225   -2.8661    5.6049 C.2       1 <0>        -0.1434
     15 C12        -4.6832   -2.3887    6.9580 C.3       1 <0>         0.0246
     16 N2         -5.4548   -1.1483    6.8029 N.4       1 <0>        -0.3863
     17 C13        -6.0044   -0.7476    8.1050 C.3       1 <0>        -0.0479
     18 C14        -4.5770   -0.0860    6.2941 C.3       1 <0>        -0.0515
     19 C15        -1.9721   -5.7705   -0.5170 C.ar      1 <0>         0.2764
     20 C16        -1.4562   -6.0716   -1.7867 C.ar      1 <0>        -0.0898
     21 C17        -0.1393   -5.6978   -2.0994 C.ar      1 <0>         0.1961
     22 N3          0.6205   -5.0750   -1.2351 N.ar      1 <0>        -0.4680
     23 C18        -2.2639   -6.7532   -2.7530 C.1       1 <0>         0.2470
     24 N4         -2.9046   -7.2940   -3.5195 N.1       1 <0>        -0.3829
     25 N5         -3.2614   -6.1209   -0.1699 N.pl3     1 <0>        -0.7004
     26 C19        -3.5484   -7.4328    0.2202 C.ar      1 <0>         0.2008
     27 C20        -2.5224   -8.2797    0.6202 C.ar      1 <0>        -0.1440
     28 C21        -2.8075   -9.5748    1.0056 C.ar      1 <0>        -0.0965
     29 C22        -4.1152  -10.0301    0.9938 C.ar      1 <0>         0.0723
     30 C23        -5.1405   -9.1877    0.5949 C.ar      1 <0>        -0.0323
     31 C24        -4.8600   -7.8889    0.2139 C.ar      1 <0>        -0.1376
     32 Cl1        -6.7788   -9.7616    0.5801 Cl        1 <0>        -0.0386
     33 F1         -4.3916  -11.2975    1.3713 F         1 <0>        -0.1254
     34 H1          4.4783   -1.8370    3.3120 H         1 <0>         0.0859
     35 H2          2.9527   -1.1642    3.9350 H         1 <0>         0.0661
     36 H3          3.5479   -2.7289    4.5397 H         1 <0>         0.0679
     37 H4          2.6350   -2.1549    1.6841 H         1 <0>         0.0717
     38 H5          3.2303   -3.7196    2.2888 H         1 <0>         0.0729
     39 H6          2.0348   -3.8249    0.6020 H         1 <0>         0.1559
     40 H7         -2.5772   -5.0201    1.9913 H         1 <0>         0.1715
     41 H8         -0.5358   -3.7193    4.5681 H         1 <0>         0.4220
     42 H9         -2.2112   -2.9301    6.1729 H         1 <0>         0.1451
     43 H10        -4.9416   -3.0263    4.8151 H         1 <0>         0.1542
     44 H11        -5.3108   -3.1518    7.4182 H         1 <0>         0.1478
     45 H12        -3.8163   -2.2006    7.5914 H         1 <0>         0.1373
     46 H13        -5.1885   -0.5824    8.8085 H         1 <0>         0.1234
     47 H14        -6.5770    0.1728    7.9899 H         1 <0>         0.1271
     48 H15        -6.6557   -1.5358    8.4825 H         1 <0>         0.1256
     49 H16        -3.7610    0.0793    6.9977 H         1 <0>         0.1233
     50 H17        -4.1692   -0.3833    5.3280 H         1 <0>         0.1224
     51 H18        -5.1495    0.8344    6.1791 H         1 <0>         0.1270
     52 H19         0.2563   -5.9307   -3.0770 H         1 <0>         0.1779
     53 H20        -3.9683   -5.4572   -0.1966 H         1 <0>         0.4219
     54 H21        -1.5021   -7.9256    0.6293 H         1 <0>         0.1362
     55 H22        -2.0098  -10.2333    1.3162 H         1 <0>         0.1501
     56 H23        -5.6596   -7.2308   -0.0924 H         1 <0>         0.1454
     57 H24        -6.2101   -1.3012    6.1517 H         1 <0>         0.4302
@<TRIPOS>BOND
     1    1    2 1
     2    1   34 1
     3    1   35 1
     4    1   36 1
     5    2    3 1
     6    2   37 1
     7    2   38 1
     8    3    4 1
     9    4    9 ar
    10    4    5 ar
    11    5    6 ar
    12    5   39 1
    13    6   22 ar
    14    6    7 ar
    15    7    8 ar
    16    7   19 ar
    17    8    9 ar
    18    8   40 1
    19    9   10 1
    20   10   11 am
    21   10   41 1
    22   11   12 2
    23   11   13 1
    24   13   14 2
    25   13   42 1
    26   14   15 1
    27   14   43 1
    28   15   16 1
    29   15   44 1
    30   15   45 1
    31   16   17 1
    32   16   18 1
    33   16   57 1
    34   17   46 1
    35   17   47 1
    36   17   48 1
    37   18   49 1
    38   18   50 1
    39   18   51 1
    40   19   20 ar
    41   19   25 1
    42   20   21 ar
    43   20   23 1
    44   21   22 ar
    45   21   52 1
    46   23   24 3
    47   25   26 1
    48   25   53 1
    49   26   31 ar
    50   26   27 ar
    51   27   28 ar
    52   27   54 1
    53   28   29 ar
    54   28   55 1
    55   29   30 ar
    56   29   33 1
    57   30   31 ar
    58   30   32 1
    59   31   56 1
@<TRIPOS>MOLECULE
CHEMBL607707__1
   56    58     0     0     0
SMALL
USER_CHARGES

@<TRIPOS>ATOM
      1 C1          3.4767   -2.0813    3.6658 C.3       1 <0>        -0.1535
      2 C2          2.7063   -2.8025    2.5580 C.3       1 <0>         0.0515
      3 O1          1.3931   -3.1228    3.0218 O.3       1 <0>        -0.3108
      4 C3          0.5732   -3.7702    2.1536 C.ar      1 <0>         0.1539
      5 C4          1.0297   -4.0892    0.8956 C.ar      1 <0>        -0.1893
      6 C5          0.1876   -4.7579   -0.0058 C.ar      1 <0>         0.1796
      7 C6         -1.1275   -5.0964    0.3956 C.ar      1 <0>        -0.1223
      8 C7         -1.5748   -4.7633    1.6822 C.ar      1 <0>        -0.0678
      9 C8         -0.7286   -4.1117    2.5513 C.ar      1 <0>         0.1322
     10 N1         -1.1714   -3.7834    3.8381 N.am      1 <0>        -0.6572
     11 C9         -2.4807   -3.5562    4.0627 C.2       1 <0>         0.5511
     12 O2         -3.2906   -3.7366    3.1733 O.2       1 <0>        -0.5222
     13 C10        -2.9303   -3.0903    5.3832 C.2       1 <0>        -0.2244
     14 C11        -4.2225   -2.8661    5.6049 C.2       1 <0>        -0.0338
     15 C12        -4.6832   -2.3887    6.9580 C.3       1 <0>         0.0699
     16 N2         -5.4548   -1.1483    6.8029 N.3       1 <0>        -0.5440
     17 C13        -6.1183   -0.7804    8.0608 C.3       1 <0>         0.0225
     18 C14        -4.6019   -0.0549    6.3182 C.3       1 <0>         0.0200
     19 C15        -1.9721   -5.7705   -0.5170 C.ar      1 <0>         0.2776
     20 C16        -1.4562   -6.0716   -1.7867 C.ar      1 <0>        -0.0970
     21 C17        -0.1393   -5.6978   -2.0994 C.ar      1 <0>         0.1888
     22 N3          0.6205   -5.0750   -1.2351 N.ar      1 <0>        -0.4689
     23 C18        -2.2639   -6.7532   -2.7530 C.1       1 <0>         0.2533
     24 N4         -2.9046   -7.2940   -3.5195 N.1       1 <0>        -0.3930
     25 N5         -3.2614   -6.1209   -0.1699 N.pl3     1 <0>        -0.6996
     26 C19        -3.5484   -7.4328    0.2202 C.ar      1 <0>         0.2052
     27 C20        -2.5224   -8.2797    0.6202 C.ar      1 <0>        -0.1442
     28 C21        -2.8075   -9.5748    1.0056 C.ar      1 <0>        -0.0967
     29 C22        -4.1152  -10.0301    0.9938 C.ar      1 <0>         0.0685
     30 C23        -5.1405   -9.1877    0.5949 C.ar      1 <0>        -0.0306
     31 C24        -4.8600   -7.8889    0.2139 C.ar      1 <0>        -0.1374
     32 Cl1        -6.7788   -9.7616    0.5801 Cl        1 <0>        -0.0417
     33 F1         -4.3916  -11.2975    1.3713 F         1 <0>        -0.1279
     34 H1          4.4783   -1.8370    3.3120 H         1 <0>         0.0830
     35 H2          2.9527   -1.1642    3.9350 H         1 <0>         0.0675
     36 H3          3.5479   -2.7289    4.5397 H         1 <0>         0.0678
     37 H4          2.6350   -2.1549    1.6841 H         1 <0>         0.0699
     38 H5          3.2303   -3.7196    2.2888 H         1 <0>         0.0704
     39 H6          2.0348   -3.8249    0.6020 H         1 <0>         0.1530
     40 H7         -2.5772   -5.0201    1.9913 H         1 <0>         0.1737
     41 H8         -0.5358   -3.7193    4.5681 H         1 <0>         0.4195
     42 H9         -2.2112   -2.9301    6.1729 H         1 <0>         0.1299
     43 H10        -4.9416   -3.0263    4.8151 H         1 <0>         0.1360
     44 H11        -5.3108   -3.1518    7.4182 H         1 <0>         0.0975
     45 H12        -3.8163   -2.2006    7.5914 H         1 <0>         0.0477
     46 H13        -5.3680   -0.6305    8.8371 H         1 <0>         0.0284
     47 H14        -6.6824    0.1413    7.9180 H         1 <0>         0.0730
     48 H15        -6.7969   -1.5789    8.3608 H         1 <0>         0.0718
     49 H16        -4.1780   -0.3259    5.3513 H         1 <0>         0.0699
     50 H17        -5.1982    0.8514    6.2124 H         1 <0>         0.0719
     51 H18        -3.7966    0.1213    7.0314 H         1 <0>         0.0284
     52 H19         0.2563   -5.9307   -3.0770 H         1 <0>         0.1742
     53 H20        -3.9683   -5.4572   -0.1966 H         1 <0>         0.4235
     54 H21        -1.5021   -7.9256    0.6293 H         1 <0>         0.1364
     55 H22        -2.0098  -10.2333    1.3162 H         1 <0>         0.1486
     56 H23        -5.6596   -7.2308   -0.0924 H         1 <0>         0.1461
@<TRIPOS>BOND
     1    1    2 1
     2    1   34 1
     3    1   35 1
     4    1   36 1
     5    2    3 1
     6    2   37 1
     7    2   38 1
     8    3    4 1
     9    4    9 ar
    10    4    5 ar
    11    5    6 ar
    12    5   39 1
    13    6   22 ar
    14    6    7 ar
    15    7    8 ar
    16    7   19 ar
    17    8    9 ar
    18    8   40 1
    19    9   10 1
    20   10   11 am
    21   10   41 1
    22   11   12 2
    23   11   13 1
    24   13   14 2
    25   13   42 1
    26   14   15 1
    27   14   43 1
    28   15   16 1
    29   15   44 1
    30   15   45 1
    31   16   17 1
    32   16   18 1
    33   17   46 1
    34   17   47 1
    35   17   48 1
    36   18   49 1
    37   18   50 1
    38   18   51 1
    39   19   20 ar
    40   19   25 1
    41   20   21 ar
    42   20   23 1
    43   21   22 ar
    44   21   52 1
    45   23   24 3
    46   25   26 1
    47   25   53 1
    48   26   31 ar
    49   26   27 ar
    50   27   28 ar
    51   27   54 1
    52   28   29 ar
    53   28   55 1
    54   29   30 ar
    55   29   33 1
    56   30   31 ar
    57   30   32 1
    58   31   56 1
@<TRIPOS>MOLECULE
CHEMBL565885
   56    60     0     0     0
SMALL
USER_CHARGES

@<TRIPOS>ATOM
      1 C1         -2.1155    0.3432    0.7803 C.3       1 <0>        -0.1130
      2 C2         -0.8986   -0.3483    0.2218 C.ar      1 <0>        -0.0391
      3 C3         -0.9193   -0.8295   -1.0835 C.ar      1 <0>        -0.1147
      4 C4          0.1641   -1.4597   -1.6196 C.ar      1 <0>        -0.0834
      5 C5          1.3231   -1.6300   -0.8504 C.ar      1 <0>        -0.1320
      6 C6          1.3564   -1.1440    0.4799 C.ar      1 <0>         0.0169
      7 C7          0.2257   -0.4923    1.0088 C.ar      1 <0>         0.1440
      8 N1          0.2404   -0.0019    2.3149 N.pl3     1 <0>        -0.6510
      9 C8          0.3922    1.3576    2.5436 C.ar      1 <0>         0.4463
     10 C9          0.5800    1.8279    3.8520 C.ar      1 <0>        -0.1840
     11 C10         0.7306    3.1999    4.0591 C.ar      1 <0>        -0.0026
     12 C11         0.6877    4.0410    2.9588 C.ar      1 <0>        -0.2381
     13 C12         0.4991    3.5038    1.6994 C.ar      1 <0>         0.1723
     14 N2          0.3643    2.2030    1.5255 N.ar      1 <0>        -0.5356
     15 C13         0.6174    0.8848    4.9937 C.ar      1 <0>         0.2708
     16 C14         0.9547    1.3316    6.2702 C.ar      1 <0>        -0.2895
     17 C15         0.9750    0.4035    7.3091 C.ar      1 <0>         0.4458
     18 N3          0.6739   -0.8662    7.0469 N.ar      1 <0>        -0.5832
     19 C16         0.3599   -1.2499    5.8260 C.ar      1 <0>         0.3573
     20 N4          0.3234   -0.4047    4.8172 N.ar      1 <0>        -0.5815
     21 N5          1.3044    0.7966    8.5967 N.pl3     1 <0>        -0.7139
     22 C17         1.6346    2.1969    8.8733 C.3       1 <0>         0.0888
     23 C18         2.5330   -1.3283    1.2291 C.ar      1 <0>        -0.2002
     24 C19         3.5885   -1.9633    0.6494 C.ar      1 <0>         0.1266
     25 N6          3.5392   -2.4114   -0.5980 N.ar      1 <0>        -0.5418
     26 C20         2.4712   -2.2758   -1.3609 C.ar      1 <0>         0.4249
     27 N7          2.4758   -2.7647   -2.6575 N.pl3     1 <0>        -0.6518
     28 C21         3.5758   -3.4881   -3.1280 C.ar      1 <0>         0.1697
     29 C22         4.3082   -4.2853   -2.2575 C.ar      1 <0>        -0.1047
     30 C23         5.3940   -4.9991   -2.7251 C.ar      1 <0>        -0.0891
     31 C24         5.7529   -4.9205   -4.0593 C.ar      1 <0>        -0.0565
     32 C25         5.0250   -4.1272   -4.9287 C.ar      1 <0>        -0.0880
     33 C26         3.9348   -3.4156   -4.4679 C.ar      1 <0>        -0.1432
     34 Cl1         7.1191   -5.8184   -4.6433 Cl        1 <0>        -0.0737
     35 H1         -2.0286    1.4178    0.6196 H         1 <0>         0.0782
     36 H2         -3.0078   -0.0285    0.2767 H         1 <0>         0.0664
     37 H3         -2.1903    0.1405    1.8487 H         1 <0>         0.0654
     38 H4         -1.8090   -0.7018   -1.6822 H         1 <0>         0.1300
     39 H5          0.1293   -1.8272   -2.6346 H         1 <0>         0.1248
     40 H6          0.1445   -0.6118    3.0631 H         1 <0>         0.4346
     41 H7          0.8766    3.5965    5.0530 H         1 <0>         0.1365
     42 H8          0.8005    5.1077    3.0843 H         1 <0>         0.1379
     43 H9          0.4655    4.1600    0.8423 H         1 <0>         0.1590
     44 H10         1.1943    2.3694    6.4491 H         1 <0>         0.1432
     45 H11         0.1209   -2.2881    5.6484 H         1 <0>         0.1990
     46 H12         1.3164    0.1445    9.3148 H         1 <0>         0.4116
     47 H13         0.7848    2.8285    8.6145 H         1 <0>         0.0612
     48 H14         1.8647    2.3135    9.9323 H         1 <0>         0.0856
     49 H15         2.4998    2.4904    8.2790 H         1 <0>         0.0615
     50 H16         2.5979   -0.9718    2.2464 H         1 <0>         0.1301
     51 H17         4.4930   -2.1061    1.2221 H         1 <0>         0.1530
     52 H18         1.7158   -2.6050   -3.2387 H         1 <0>         0.4190
     53 H19         4.0290   -4.3464   -1.2160 H         1 <0>         0.1475
     54 H20         5.9638   -5.6191   -2.0488 H         1 <0>         0.1346
     55 H21         5.3073   -4.0677   -5.9695 H         1 <0>         0.1356
     56 H22         3.3646   -2.7999   -5.1477 H         1 <0>         0.1326
@<TRIPOS>BOND
     1    1    2 1
     2    1   35 1
     3    1   36 1
     4    1   37 1
     5    2    7 ar
     6    2    3 ar
     7    3    4 ar
     8    3   38 1
     9    4    5 ar
    10    4   39 1
    11    5   26 ar
    12    5    6 ar
    13    6    7 ar
    14    6   23 ar
    15    7    8 1
    16    8    9 1
    17    8   40 1
    18    9   14 ar
    19    9   10 ar
    20   10   11 ar
    21   10   15 1
    22   11   12 ar
    23   11   41 1
    24   12   13 ar
    25   12   42 1
    26   13   14 ar
    27   13   43 1
    28   15   20 ar
    29   15   16 ar
    30   16   17 ar
    31   16   44 1
    32   17   18 ar
    33   17   21 1
    34   18   19 ar
    35   19   20 ar
    36   19   45 1
    37   21   22 1
    38   21   46 1
    39   22   47 1
    40   22   48 1
    41   22   49 1
    42   23   24 ar
    43   23   50 1
    44   24   25 ar
    45   24   51 1
    46   25   26 ar
    47   26   27 1
    48   27   28 1
    49   27   52 1
    50   28   33 ar
    51   28   29 ar
    52   29   30 ar
    53   29   53 1
    54   30   31 ar
    55   30   54 1
    56   31   32 ar
    57   31   34 1
    58   32   33 ar
    59   32   55 1
    60   33   56 1
@<TRIPOS>MOLECULE
CHEMBL565885__1
   57    61     0     0     0
SMALL
USER_CHARGES

@<TRIPOS>ATOM
      1 C1         -2.1705   -0.6559    0.8810 C.3       1 <0>        -0.1284
      2 C2         -0.9486   -1.3873    0.3878 C.ar      1 <0>         0.0025
      3 C3         -0.7963   -1.6323   -0.9732 C.ar      1 <0>        -0.0860
      4 C4          0.2967   -2.2911   -1.4528 C.ar      1 <0>        -0.0703
      5 C5          1.2891   -2.7322   -0.5671 C.ar      1 <0>        -0.1227
      6 C6          1.1454   -2.4882    0.8210 C.ar      1 <0>         0.0250
      7 C7          0.0094   -1.8014    1.2906 C.ar      1 <0>         0.1644
      8 N1         -0.1481   -1.5467    2.6533 N.pl3     1 <0>        -0.6636
      9 C8          0.0818   -0.2730    3.1518 C.ar      1 <0>         0.4335
     10 C9          0.0582   -0.0517    4.5370 C.ar      1 <0>        -0.1680
     11 C10         0.2921    1.2378    5.0169 C.ar      1 <0>        -0.0032
     12 C11         0.5386    2.2473    4.1002 C.ar      1 <0>        -0.2219
     13 C12         0.5458    1.9526    2.7499 C.ar      1 <0>         0.1685
     14 N2          0.3275    0.7252    2.3182 N.ar      1 <0>        -0.5404
     15 C13        -0.2109   -1.1672    5.4739 C.ar      1 <0>         0.2631
     16 C14        -0.0749   -0.9849    6.8492 C.ar      1 <0>        -0.2852
     17 C15        -0.3400   -2.0665    7.6864 C.ar      1 <0>         0.4496
     18 N3         -0.7107   -3.2254    7.1468 N.ar      1 <0>        -0.5791
     19 C16        -0.8281   -3.3581    5.8411 C.ar      1 <0>         0.3577
     20 N4         -0.5926   -2.3605    5.0149 N.ar      1 <0>        -0.5893
     21 N5         -0.2191   -1.9377    9.0612 N.pl3     1 <0>        -0.7091
     22 C17         0.1901   -0.6573    9.6437 C.3       1 <0>         0.0858
     23 C18         2.1572   -2.9419    1.6871 C.ar      1 <0>        -0.1099
     24 C19         3.2296   -3.5944    1.1603 C.ar      1 <0>         0.0759
     25 N6          3.3473   -3.8135   -0.1426 N.ar      1 <0>        -0.5125
     26 C20         2.4398   -3.4185   -1.0152 C.ar      1 <0>         0.4970
     27 N7          2.6147   -3.6758   -2.3656 N.pl3     1 <0>        -0.6265
     28 C21         3.6906   -4.4588   -2.7944 C.ar      1 <0>         0.0963
     29 C22         4.0359   -5.6091   -2.0964 C.ar      1 <0>        -0.1550
     30 C23         5.0988   -6.3809   -2.5225 C.ar      1 <0>        -0.0738
     31 C24         5.8201   -6.0091   -3.6435 C.ar      1 <0>        -0.0291
     32 C25         5.4784   -4.8636   -4.3408 C.ar      1 <0>        -0.0740
     33 C26         4.4128   -4.0911   -3.9225 C.ar      1 <0>        -0.0993
     34 Cl1         7.1564   -6.9811   -4.1756 Cl        1 <0>        -0.0336
     35 H1         -1.9594    0.4123    0.9301 H         1 <0>         0.0931
     36 H2         -3.0000   -0.8312    0.1960 H         1 <0>         0.0802
     37 H3         -2.4358   -1.0198    1.8736 H         1 <0>         0.0784
     38 H4         -1.5571   -1.2952   -1.6616 H         1 <0>         0.1523
     39 H5          0.3973   -2.4728   -2.5126 H         1 <0>         0.1425
     40 H6         -0.4184   -2.2604    3.2520 H         1 <0>         0.4392
     41 H7          0.2810    1.4440    6.0770 H         1 <0>         0.1417
     42 H8          0.7231    3.2563    4.4382 H         1 <0>         0.1435
     43 H9          0.7376    2.7399    2.0360 H         1 <0>         0.1634
     44 H10         0.2283   -0.0310    7.2548 H         1 <0>         0.1454
     45 H11        -1.1310   -4.3127    5.4367 H         1 <0>         0.1997
     46 H12        -0.4054   -2.6953    9.6375 H         1 <0>         0.4141
     47 H13        -0.5302    0.1135    9.3693 H         1 <0>         0.0635
     48 H14         0.2294   -0.7480   10.7292 H         1 <0>         0.0893
     49 H15         1.1756   -0.3847    9.2660 H         1 <0>         0.0630
     50 H16         2.0846   -2.7749    2.7516 H         1 <0>         0.1718
     51 H17         4.0078   -3.9436    1.8227 H         1 <0>         0.1992
     52 H18         1.9906   -3.3126   -3.0133 H         1 <0>         0.4449
     53 H19         3.4737   -5.8994   -1.2211 H         1 <0>         0.1384
     54 H20         5.3677   -7.2754   -1.9802 H         1 <0>         0.1536
     55 H21         6.0431   -4.5758   -5.2153 H         1 <0>         0.1550
     56 H22         4.1440   -3.1995   -4.4695 H         1 <0>         0.1509
     57 H23         4.1317   -4.2831   -0.4668 H         1 <0>         0.4382
@<TRIPOS>BOND
     1    1    2 1
     2    1   35 1
     3    1   36 1
     4    1   37 1
     5    2    7 ar
     6    2    3 ar
     7    3    4 ar
     8    3   38 1
     9    4    5 ar
    10    4   39 1
    11    5   26 ar
    12    5    6 ar
    13    6    7 ar
    14    6   23 ar
    15    7    8 1
    16    8    9 1
    17    8   40 1
    18    9   14 ar
    19    9   10 ar
    20   10   11 ar
    21   10   15 1
    22   11   12 ar
    23   11   41 1
    24   12   13 ar
    25   12   42 1
    26   13   14 ar
    27   13   43 1
    28   15   20 ar
    29   15   16 ar
    30   16   17 ar
    31   16   44 1
    32   17   18 ar
    33   17   21 1
    34   18   19 ar
    35   19   20 ar
    36   19   45 1
    37   21   22 1
    38   21   46 1
    39   22   47 1
    40   22   48 1
    41   22   49 1
    42   23   24 ar
    43   23   50 1
    44   24   25 ar
    45   24   51 1
    46   25   26 ar
    47   25   57 1
    48   26   27 1
    49   27   28 1
    50   27   52 1
    51   28   33 ar
    52   28   29 ar
    53   29   30 ar
    54   29   53 1
    55   30   31 ar
    56   30   54 1
    57   31   32 ar
    58   31   34 1
    59   32   33 ar
    60   32   55 1
    61   33   56 1
@<TRIPOS>MOLECULE
CHEMBL212128
   51    54     0     0     0
SMALL
USER_CHARGES

@<TRIPOS>ATOM
      1 C1         -0.0443    1.5022    0.0287 C.3       1 <0>        -0.1191
      2 C2         -0.0170   -0.0045    0.0155 C.ar      1 <0>        -0.0813
      3 C3         -0.0041   -0.6841   -1.1864 C.ar      1 <0>        -0.0989
      4 C4          0.0214   -2.0655   -1.2035 C.ar      1 <0>        -0.1348
      5 C5          0.0342   -2.7789   -0.0107 C.ar      1 <0>         0.1360
      6 C6          0.0213   -2.1040    1.2004 C.ar      1 <0>        -0.1015
      7 C7          0.0010   -0.7115    1.2166 C.ar      1 <0>        -0.0295
      8 C8         -0.0072    0.0172    2.5088 C.ar      1 <0>        -0.0694
      9 C9          0.9047    1.0626    2.7243 C.ar      1 <0>        -0.0495
     10 C10         0.9193    1.7467    3.8990 C.ar      1 <0>        -0.1217
     11 C11         0.0128    1.4100    4.9165 C.ar      1 <0>         0.2161
     12 C12        -0.9135    0.3549    4.7084 C.ar      1 <0>        -0.2133
     13 C13        -0.9171   -0.3353    3.4896 C.ar      1 <0>        -0.0385
     14 C14        -1.8117    0.0384    5.7455 C.ar      1 <0>         0.2428
     15 N1         -1.7527    0.7344    6.8614 N.ar      1 <0>        -0.5591
     16 C15        -0.8702    1.7185    7.0226 C.ar      1 <0>         0.5676
     17 N2         -0.0053    2.0593    6.0870 N.ar      1 <0>        -0.5735
     18 N3         -0.8605    2.4117    8.2195 N.pl3     1 <0>        -0.7015
     19 C16        -1.8089    2.0578    9.2786 C.3       1 <0>         0.1044
     20 N4          0.0595   -4.1772   -0.0321 N.am      1 <0>        -0.6672
     21 C17         0.7430   -4.8533    0.9124 C.2       1 <0>         0.5609
     22 O1          1.2671   -4.2528    1.8303 O.2       1 <0>        -0.5064
     23 C18         0.8554   -6.3250    0.8322 C.ar      1 <0>        -0.1373
     24 C19         0.2596   -7.0171   -0.2238 C.ar      1 <0>        -0.0545
     25 C20         0.3683   -8.3904   -0.2927 C.ar      1 <0>        -0.1231
     26 C21         1.0655   -9.0822    0.6822 C.ar      1 <0>        -0.0432
     27 C22         1.6583   -8.4024    1.7312 C.ar      1 <0>        -0.1885
     28 C23         1.5625   -7.0282    1.8086 C.ar      1 <0>        -0.0073
     29 C24         2.4152   -9.1641    2.7885 C.3       1 <0>         0.5100
     30 F1          2.3787  -10.5314    2.4943 F         1 <0>        -0.1745
     31 F2          3.7443   -8.7283    2.8156 F         1 <0>        -0.1726
     32 F3          1.8254   -8.9399    4.0370 F         1 <0>        -0.1726
     33 H1          0.9766    1.8841    0.0275 H         1 <0>         0.0729
     34 H2         -0.5686    1.8638   -0.8559 H         1 <0>         0.0679
     35 H3         -0.5607    1.8484    0.9240 H         1 <0>         0.0710
     36 H4         -0.0143   -0.1342   -2.1159 H         1 <0>         0.1303
     37 H5          0.0311   -2.5923   -2.1463 H         1 <0>         0.1272
     38 H6          0.0313   -2.6563    2.1284 H         1 <0>         0.1425
     39 H7          1.6049    1.3270    1.9457 H         1 <0>         0.1341
     40 H8          1.6277    2.5480    4.0492 H         1 <0>         0.1391
     41 H9         -1.6201   -1.1372    3.3187 H         1 <0>         0.1342
     42 H10        -2.5328   -0.7570    5.6281 H         1 <0>         0.1776
     43 H11        -0.2258    3.1321    8.3576 H         1 <0>         0.4163
     44 H12        -1.6517    2.7080   10.1391 H         1 <0>         0.0769
     45 H13        -2.8274    2.1819    8.9107 H         1 <0>         0.0599
     46 H14        -1.6531    1.0202    9.5739 H         1 <0>         0.0600
     47 H15        -0.4148   -4.6603   -0.7268 H         1 <0>         0.4108
     48 H16        -0.2854   -6.4785   -0.9848 H         1 <0>         0.1372
     49 H17        -0.0922   -8.9270   -1.1090 H         1 <0>         0.1463
     50 H18         1.1470  -10.1575    0.6239 H         1 <0>         0.1472
     51 H19         2.0298   -6.4983    2.6255 H         1 <0>         0.1498
@<TRIPOS>BOND
     1    1    2 1
     2    1   33 1
     3    1   34 1
     4    1   35 1
     5    2    7 ar
     6    2    3 ar
     7    3    4 ar
     8    3   36 1
     9    4    5 ar
    10    4   37 1
    11    5    6 ar
    12    5   20 1
    13    6    7 ar
    14    6   38 1
    15    7    8 1
    16    8   13 ar
    17    8    9 ar
    18    9   10 ar
    19    9   39 1
    20   10   11 ar
    21   10   40 1
    22   11   17 ar
    23   11   12 ar
    24   12   13 ar
    25   12   14 ar
    26   13   41 1
    27   14   15 ar
    28   14   42 1
    29   15   16 ar
    30   16   17 ar
    31   16   18 1
    32   18   19 1
    33   18   43 1
    34   19   44 1
    35   19   45 1
    36   19   46 1
    37   20   21 am
    38   20   47 1
    39   21   22 2
    40   21   23 1
    41   23   28 ar
    42   23   24 ar
    43   24   25 ar
    44   24   48 1
    45   25   26 ar
    46   25   49 1
    47   26   27 ar
    48   26   50 1
    49   27   28 ar
    50   27   29 1
    51   28   51 1
    52   29   30 1
    53   29   31 1
    54   29   32 1
@<TRIPOS>MOLECULE
CHEMBL593883
   59    62     0     0     0
SMALL
USER_CHARGES

@<TRIPOS>ATOM
      1 C1          0.1971    1.2747   -0.1141 C.3       1 <0>        -0.1054
      2 C2          1.2812    1.4047    0.9246 C.ar      1 <0>        -0.1028
      3 C3          2.4127    2.1812    0.6657 C.ar      1 <0>        -0.0653
      4 C4          2.8559    2.9815   -0.4785 C.2       1 <0>        -0.2131
      5 C5          4.0451    3.5110   -0.1506 C.2       1 <0>         0.0614
      6 N1          4.4002    3.1157    1.1099 N.pl3     1 <0>        -0.5972
      7 H1          5.2182    3.3711    1.5645 H         1 <0>         0.4155
      8 C6          3.4217    2.3000    1.6381 C.ar      1 <0>         0.0631
      9 C7          3.2830    1.6402    2.8551 C.ar      1 <0>        -0.0916
     10 C8          2.1644    0.8770    3.1011 C.ar      1 <0>        -0.1444
     11 C9          1.1592    0.7607    2.1416 C.ar      1 <0>         0.1754
     12 N2          0.0250   -0.0146    2.4100 N.pl3     1 <0>        -0.7078
     13 C10        -0.0454   -0.7574    3.5754 C.ar      1 <0>         0.2551
     14 C11        -0.4589   -0.1704    4.7857 C.ar      1 <0>        -0.1135
     15 C12        -0.5143   -0.9583    5.9319 C.ar      1 <0>         0.1363
     16 N3         -0.1867   -2.2360    5.8952 N.ar      1 <0>        -0.4739
     17 C13         0.2060   -2.8300    4.7872 C.ar      1 <0>         0.1613
     18 C14         0.2887   -2.1249    3.5854 C.ar      1 <0>        -0.0789
     19 C15         0.7112   -2.7801    2.3842 C.1       1 <0>         0.2497
     20 N4          1.0463   -3.2998    1.4313 N.1       1 <0>        -0.3874
     21 C16        -0.8276    1.2590    4.8390 C.2       1 <0>        -0.0933
     22 C17        -1.2159    1.8014    5.9854 C.2       1 <0>        -0.1476
     23 C18        -1.5921    3.2597    6.0398 C.3       1 <0>        -0.0855
     24 C19        -3.0009    3.4017    6.6195 C.3       1 <0>         0.0589
     25 N5         -3.3676    4.8232    6.6726 N.3       1 <0>        -0.5415
     26 C20        -2.5177    5.5508    7.6237 C.3       1 <0>         0.0496
     27 C21        -2.8284    7.0473    7.5462 C.3       1 <0>        -0.1393
     28 C22        -4.3063    7.2744    7.8762 C.3       1 <0>         0.0235
     29 C23        -5.1687    6.4676    6.9016 C.3       1 <0>        -0.1389
     30 C24        -4.7901    4.9879    6.9978 C.3       1 <0>         0.0548
     31 N6         -4.6243    8.7027    7.7464 N.4       1 <0>        -0.6357
     32 H2         -0.5364    2.0689    0.0250 H         1 <0>         0.0673
     33 H3          0.6354    1.3550   -1.1088 H         1 <0>         0.0708
     34 H4         -0.2919    0.3061   -0.0096 H         1 <0>         0.0569
     35 H5          2.3262    3.1194   -1.4095 H         1 <0>         0.1452
     36 H6          4.6344    4.1538   -0.7878 H         1 <0>         0.1708
     37 H7          4.0535    1.7266    3.6069 H         1 <0>         0.1216
     38 H8          2.0623    0.3668    4.0475 H         1 <0>         0.1216
     39 H9         -0.7115   -0.0311    1.7790 H         1 <0>         0.4148
     40 H10        -0.8301   -0.5170    6.8657 H         1 <0>         0.1667
     41 H11         0.4640   -3.8785    4.8080 H         1 <0>         0.1726
     42 H12        -0.7811    1.8624    3.9445 H         1 <0>         0.1268
     43 H13        -1.2624    1.1980    6.8799 H         1 <0>         0.1166
     44 H14        -0.8834    3.7944    6.6721 H         1 <0>         0.0752
     45 H15        -1.5693    3.6786    5.0337 H         1 <0>         0.0799
     46 H16        -3.7096    2.8669    5.9872 H         1 <0>         0.0852
     47 H17        -3.0236    2.9828    7.6256 H         1 <0>         0.0444
     48 H18        -2.7129    5.1912    8.6340 H         1 <0>         0.0477
     49 H19        -1.4695    5.3842    7.3752 H         1 <0>         0.1008
     50 H20        -2.2085    7.5853    8.2633 H         1 <0>         0.0934
     51 H21        -2.6203    7.4105    6.5398 H         1 <0>         0.0971
     52 H22        -4.5062    6.9470    8.8965 H         1 <0>         0.1391
     53 H23        -6.2207    6.5914    7.1583 H         1 <0>         0.0938
     54 H24        -4.9973    6.8217    5.8851 H         1 <0>         0.0973
     55 H25        -5.3924    4.4125    6.2948 H         1 <0>         0.0980
     56 H26        -4.9746    4.6309    8.0110 H         1 <0>         0.0475
     57 H27        -4.4412    9.0035    6.8009 H         1 <0>         0.4345
     58 H28        -5.5983    8.8515    7.9641 H         1 <0>         0.4363
     59 H29        -4.0520    9.2341    8.3852 H         1 <0>         0.4363
@<TRIPOS>BOND
     1    1    2 1
     2    1   32 1
     3    1   33 1
     4    1   34 1
     5    2   11 ar
     6    2    3 ar
     7    3    8 ar
     8    3    4 1
     9    4    5 2
    10    4   35 1
    11    5    6 1
    12    5   36 1
    13    6    7 1
    14    6    8 1
    15    8    9 ar
    16    9   10 ar
    17    9   37 1
    18   10   11 ar
    19   10   38 1
    20   11   12 1
    21   12   13 1
    22   12   39 1
    23   13   18 ar
    24   13   14 ar
    25   14   15 ar
    26   14   21 1
    27   15   16 ar
    28   15   40 1
    29   16   17 ar
    30   17   18 ar
    31   17   41 1
    32   18   19 1
    33   19   20 3
    34   21   22 2
    35   21   42 1
    36   22   23 1
    37   22   43 1
    38   23   24 1
    39   23   44 1
    40   23   45 1
    41   24   25 1
    42   24   46 1
    43   24   47 1
    44   25   30 1
    45   25   26 1
    46   26   27 1
    47   26   48 1
    48   26   49 1
    49   27   28 1
    50   27   50 1
    51   27   51 1
    52   28   29 1
    53   28   31 1
    54   28   52 1
    55   29   30 1
    56   29   53 1
    57   29   54 1
    58   30   55 1
    59   30   56 1
    60   31   57 1
    61   31   58 1
    62   31   59 1
@<TRIPOS>MOLECULE
CHEMBL593883__1
   60    63     0     0     0
SMALL
USER_CHARGES

@<TRIPOS>ATOM
      1 C1          0.1971    1.2747   -0.1141 C.3       1 <0>        -0.1067
      2 C2          1.2812    1.4047    0.9246 C.ar      1 <0>        -0.0989
      3 C3          2.4127    2.1812    0.6657 C.ar      1 <0>        -0.0657
      4 C4          2.8559    2.9815   -0.4785 C.2       1 <0>        -0.2141
      5 C5          4.0451    3.5110   -0.1506 C.2       1 <0>         0.0664
      6 N1          4.4002    3.1157    1.1099 N.pl3     1 <0>        -0.5962
      7 H1          5.2182    3.3711    1.5645 H         1 <0>         0.4174
      8 C6          3.4217    2.3000    1.6381 C.ar      1 <0>         0.0651
      9 C7          3.2830    1.6402    2.8551 C.ar      1 <0>        -0.0908
     10 C8          2.1644    0.8770    3.1011 C.ar      1 <0>        -0.1485
     11 C9          1.1592    0.7607    2.1416 C.ar      1 <0>         0.1674
     12 N2          0.0250   -0.0146    2.4100 N.pl3     1 <0>        -0.7114
     13 C10        -0.0454   -0.7574    3.5754 C.ar      1 <0>         0.2680
     14 C11        -0.4589   -0.1704    4.7857 C.ar      1 <0>        -0.1412
     15 C12        -0.5143   -0.9583    5.9319 C.ar      1 <0>         0.1462
     16 N3         -0.1867   -2.2360    5.8952 N.ar      1 <0>        -0.4740
     17 C13         0.2060   -2.8300    4.7872 C.ar      1 <0>         0.1763
     18 C14         0.2887   -2.1249    3.5854 C.ar      1 <0>        -0.0749
     19 C15         0.7112   -2.7801    2.3842 C.1       1 <0>         0.2400
     20 N4          1.0463   -3.2998    1.4313 N.1       1 <0>        -0.3726
     21 C16        -0.8276    1.2590    4.8390 C.2       1 <0>        -0.0411
     22 C17        -1.2159    1.8014    5.9854 C.2       1 <0>        -0.1941
     23 C18        -1.5921    3.2597    6.0398 C.3       1 <0>        -0.1062
     24 C19        -3.0009    3.4017    6.6195 C.3       1 <0>        -0.0098
     25 N5         -3.3676    4.8232    6.6726 N.4       1 <0>        -0.3898
     26 C20        -2.4803    5.5212    7.6107 C.3       1 <0>        -0.0096
     27 C21        -2.8050    7.0165    7.6091 C.3       1 <0>        -0.1720
     28 C22        -4.2618    7.2175    8.0362 C.3       1 <0>         0.0167
     29 C23        -5.1734    6.4247    7.0951 C.3       1 <0>        -0.1723
     30 C24        -4.7610    4.9513    7.1158 C.3       1 <0>        -0.0026
     31 N6         -4.6026    8.6446    7.9635 N.4       1 <0>        -0.6349
     32 H2         -0.5364    2.0689    0.0250 H         1 <0>         0.0656
     33 H3          0.6354    1.3550   -1.1088 H         1 <0>         0.0737
     34 H4         -0.2919    0.3061   -0.0096 H         1 <0>         0.0578
     35 H5          2.3262    3.1194   -1.4095 H         1 <0>         0.1471
     36 H6          4.6344    4.1538   -0.7878 H         1 <0>         0.1735
     37 H7          4.0535    1.7266    3.6069 H         1 <0>         0.1228
     38 H8          2.0623    0.3668    4.0475 H         1 <0>         0.1205
     39 H9         -0.7115   -0.0311    1.7790 H         1 <0>         0.4158
     40 H10        -0.8301   -0.5170    6.8657 H         1 <0>         0.1659
     41 H11         0.4640   -3.8785    4.8080 H         1 <0>         0.1777
     42 H12        -0.7811    1.8624    3.9445 H         1 <0>         0.1294
     43 H13        -1.2624    1.1980    6.8799 H         1 <0>         0.1292
     44 H14        -0.8834    3.7944    6.6721 H         1 <0>         0.0950
     45 H15        -1.5693    3.6786    5.0337 H         1 <0>         0.0916
     46 H16        -3.7096    2.8669    5.9872 H         1 <0>         0.1410
     47 H17        -3.0236    2.9828    7.6256 H         1 <0>         0.1384
     48 H18        -2.6246    5.1196    8.6137 H         1 <0>         0.1442
     49 H19        -1.4437    5.3745    7.3072 H         1 <0>         0.1540
     50 H20        -2.1463    7.5327    8.3075 H         1 <0>         0.1382
     51 H21        -2.6608    7.4192    6.6065 H         1 <0>         0.1131
     52 H22        -4.3945    6.8615    9.0578 H         1 <0>         0.1599
     53 H23        -6.2077    6.5179    7.4263 H         1 <0>         0.1385
     54 H24        -5.0783    6.8151    6.0819 H         1 <0>         0.1131
     55 H25        -5.4082    4.3839    6.4469 H         1 <0>         0.1527
     56 H26        -4.8566    4.5618    8.1293 H         1 <0>         0.1434
     57 H27        -4.4822    8.9713    7.0165 H         1 <0>         0.4392
     58 H28        -5.5626    8.7759    8.2451 H         1 <0>         0.4478
     59 H29        -3.9971    9.1668    8.5790 H         1 <0>         0.4477
     60 H30        -3.2691    5.2293    5.7542 H         1 <0>         0.4267
@<TRIPOS>BOND
     1    1    2 1
     2    1   32 1
     3    1   33 1
     4    1   34 1
     5    2   11 ar
     6    2    3 ar
     7    3    8 ar
     8    3    4 1
     9    4    5 2
    10    4   35 1
    11    5    6 1
    12    5   36 1
    13    6    7 1
    14    6    8 1
    15    8    9 ar
    16    9   10 ar
    17    9   37 1
    18   10   11 ar
    19   10   38 1
    20   11   12 1
    21   12   13 1
    22   12   39 1
    23   13   18 ar
    24   13   14 ar
    25   14   15 ar
    26   14   21 1
    27   15   16 ar
    28   15   40 1
    29   16   17 ar
    30   17   18 ar
    31   17   41 1
    32   18   19 1
    33   19   20 3
    34   21   22 2
    35   21   42 1
    36   22   23 1
    37   22   43 1
    38   23   24 1
    39   23   44 1
    40   23   45 1
    41   24   25 1
    42   24   46 1
    43   24   47 1
    44   25   30 1
    45   25   26 1
    46   25   60 1
    47   26   27 1
    48   26   48 1
    49   26   49 1
    50   27   28 1
    51   27   50 1
    52   27   51 1
    53   28   29 1
    54   28   31 1
    55   28   52 1
    56   29   30 1
    57   29   53 1
    58   29   54 1
    59   30   55 1
    60   30   56 1
    61   31   57 1
    62   31   58 1
    63   31   59 1
@<TRIPOS>MOLECULE
CHEMBL593883__2
   59    62     0     0     0
SMALL
USER_CHARGES

@<TRIPOS>ATOM
      1 C1          0.1971    1.2747   -0.1141 C.3       1 <0>        -0.1063
      2 C2          1.2812    1.4047    0.9246 C.ar      1 <0>        -0.0999
      3 C3          2.4127    2.1812    0.6657 C.ar      1 <0>        -0.0655
      4 C4          2.8559    2.9815   -0.4785 C.2       1 <0>        -0.2135
      5 C5          4.0451    3.5110   -0.1506 C.2       1 <0>         0.0645
      6 N1          4.4002    3.1157    1.1099 N.pl3     1 <0>        -0.5965
      7 H1          5.2182    3.3711    1.5645 H         1 <0>         0.4167
      8 C6          3.4217    2.3000    1.6381 C.ar      1 <0>         0.0648
      9 C7          3.2830    1.6402    2.8551 C.ar      1 <0>        -0.0909
     10 C8          2.1644    0.8770    3.1011 C.ar      1 <0>        -0.1471
     11 C9          1.1592    0.7607    2.1416 C.ar      1 <0>         0.1697
     12 N2          0.0250   -0.0146    2.4100 N.pl3     1 <0>        -0.7104
     13 C10        -0.0454   -0.7574    3.5754 C.ar      1 <0>         0.2644
     14 C11        -0.4589   -0.1704    4.7857 C.ar      1 <0>        -0.1307
     15 C12        -0.5143   -0.9583    5.9319 C.ar      1 <0>         0.1435
     16 N3         -0.1867   -2.2360    5.8952 N.ar      1 <0>        -0.4742
     17 C13         0.2060   -2.8300    4.7872 C.ar      1 <0>         0.1707
     18 C14         0.2887   -2.1249    3.5854 C.ar      1 <0>        -0.0776
     19 C15         0.7112   -2.7801    2.3842 C.1       1 <0>         0.2451
     20 N4          1.0463   -3.2998    1.4313 N.1       1 <0>        -0.3800
     21 C16        -0.8276    1.2590    4.8390 C.2       1 <0>        -0.0595
     22 C17        -1.2159    1.8014    5.9854 C.2       1 <0>        -0.1747
     23 C18        -1.5921    3.2597    6.0398 C.3       1 <0>        -0.1103
     24 C19        -3.0009    3.4017    6.6195 C.3       1 <0>        -0.0074
     25 N5         -3.3676    4.8232    6.6726 N.4       1 <0>        -0.3839
     26 C20        -2.4803    5.5212    7.6107 C.3       1 <0>        -0.0090
     27 C21        -2.8050    7.0165    7.6091 C.3       1 <0>        -0.1441
     28 C22        -4.2618    7.2175    8.0362 C.3       1 <0>         0.0792
     29 C23        -5.1734    6.4247    7.0951 C.3       1 <0>        -0.1436
     30 C24        -4.7610    4.9513    7.1158 C.3       1 <0>        -0.0033
     31 N6         -4.6026    8.6446    7.9635 N.3       1 <0>        -0.8459
     32 H2         -0.5364    2.0689    0.0250 H         1 <0>         0.0671
     33 H3          0.6354    1.3550   -1.1088 H         1 <0>         0.0724
     34 H4         -0.2919    0.3061   -0.0096 H         1 <0>         0.0572
     35 H5          2.3262    3.1194   -1.4095 H         1 <0>         0.1464
     36 H6          4.6344    4.1538   -0.7878 H         1 <0>         0.1724
     37 H7          4.0535    1.7266    3.6069 H         1 <0>         0.1224
     38 H8          2.0623    0.3668    4.0475 H         1 <0>         0.1209
     39 H9         -0.7115   -0.0311    1.7790 H         1 <0>         0.4156
     40 H10        -0.8301   -0.5170    6.8657 H         1 <0>         0.1670
     41 H11         0.4640   -3.8785    4.8080 H         1 <0>         0.1753
     42 H12        -0.7811    1.8624    3.9445 H         1 <0>         0.1296
     43 H13        -1.2624    1.1980    6.8799 H         1 <0>         0.1275
     44 H14        -0.8834    3.7944    6.6721 H         1 <0>         0.0972
     45 H15        -1.5693    3.6786    5.0337 H         1 <0>         0.0912
     46 H16        -3.7096    2.8669    5.9872 H         1 <0>         0.1335
     47 H17        -3.0236    2.9828    7.6256 H         1 <0>         0.1320
     48 H18        -2.6246    5.1196    8.6137 H         1 <0>         0.1291
     49 H19        -1.4437    5.3745    7.3072 H         1 <0>         0.1349
     50 H20        -2.1463    7.5327    8.3075 H         1 <0>         0.1099
     51 H21        -2.6608    7.4192    6.6065 H         1 <0>         0.0974
     52 H22        -4.3945    6.8615    9.0578 H         1 <0>         0.0527
     53 H23        -6.2077    6.5179    7.4263 H         1 <0>         0.1103
     54 H24        -5.0783    6.8151    6.0819 H         1 <0>         0.0973
     55 H25        -5.4082    4.3839    6.4469 H         1 <0>         0.1337
     56 H26        -4.8566    4.5618    8.1293 H         1 <0>         0.1285
     57 H27        -5.5598    8.8023    8.2409 H         1 <0>         0.3553
     58 H28        -3.9687    9.1966    8.5216 H         1 <0>         0.3551
     59 H29        -3.2691    5.2293    5.7542 H         1 <0>         0.4239
@<TRIPOS>BOND
     1    1    2 1
     2    1   32 1
     3    1   33 1
     4    1   34 1
     5    2   11 ar
     6    2    3 ar
     7    3    8 ar
     8    3    4 1
     9    4    5 2
    10    4   35 1
    11    5    6 1
    12    5   36 1
    13    6    7 1
    14    6    8 1
    15    8    9 ar
    16    9   10 ar
    17    9   37 1
    18   10   11 ar
    19   10   38 1
    20   11   12 1
    21   12   13 1
    22   12   39 1
    23   13   18 ar
    24   13   14 ar
    25   14   15 ar
    26   14   21 1
    27   15   16 ar
    28   15   40 1
    29   16   17 ar
    30   17   18 ar
    31   17   41 1
    32   18   19 1
    33   19   20 3
    34   21   22 2
    35   21   42 1
    36   22   23 1
    37   22   43 1
    38   23   24 1
    39   23   44 1
    40   23   45 1
    41   24   25 1
    42   24   46 1
    43   24   47 1
    44   25   30 1
    45   25   26 1
    46   25   59 1
    47   26   27 1
    48   26   48 1
    49   26   49 1
    50   27   28 1
    51   27   50 1
    52   27   51 1
    53   28   29 1
    54   28   31 1
    55   28   52 1
    56   29   30 1
    57   29   53 1
    58   29   54 1
    59   30   55 1
    60   30   56 1
    61   31   57 1
    62   31   58 1
@<TRIPOS>MOLECULE
CHEMBL481968
   44    46     0     0     0
SMALL
USER_CHARGES

@<TRIPOS>ATOM
      1 C1          1.9661    1.1600   -3.1617 C.ar      1 <0>        -0.0434
      2 C2          2.4629    1.9401   -2.1351 C.ar      1 <0>        -0.1664
      3 C3          3.0835    1.3411   -1.0475 C.ar      1 <0>         0.2464
      4 C4          3.2033   -0.0441   -0.9948 C.ar      1 <0>         0.0403
      5 C5          2.7040   -0.8184   -2.0254 C.ar      1 <0>        -0.0748
      6 C6          2.0862   -0.2167   -3.1075 C.ar      1 <0>        -0.1391
      7 I1          1.3309   -1.3938   -4.6673 I         1 <0>        -0.0536
      8 F1          3.8070   -0.6314    0.0616 F         1 <0>        -0.1353
      9 N1          3.5878    2.1284   -0.0071 N.pl3     1 <0>        -0.6528
     10 C7          3.5682    3.5117   -0.1117 C.ar      1 <0>         0.1767
     11 C8          4.7141    4.2008   -0.5504 C.ar      1 <0>        -0.1181
     12 C9          4.6886    5.5934   -0.6538 C.ar      1 <0>        -0.0264
     13 C10         3.5308    6.2905   -0.3224 C.ar      1 <0>        -0.0819
     14 C11         2.3926    5.5951    0.1143 C.ar      1 <0>         0.1029
     15 C12         2.4141    4.2180    0.2116 C.ar      1 <0>         0.0432
     16 F2          1.3129    3.5549    0.6274 F         1 <0>        -0.1235
     17 F3          1.2702    6.2751    0.4352 F         1 <0>        -0.1044
     18 C13         3.4999    7.7601   -0.4296 C.2       1 <0>         0.1252
     19 N2          2.4199    8.4109   -0.1205 N.2       1 <0>        -0.2207
     20 N3          2.3905    9.8079   -0.2224 N.am      1 <0>        -0.5754
     21 C14         1.2693   10.4835    0.0985 C.2       1 <0>         0.6222
     22 O1          0.2821    9.8799    0.4768 O.2       1 <0>        -0.4749
     23 C15         1.2386   11.9454   -0.0081 C.2       1 <0>        -0.0658
     24 C16         0.1753   12.7496    0.2889 C.2       1 <0>        -0.1128
     25 C17         0.5864   14.0691    0.0434 C.2       1 <0>        -0.1928
     26 C18         1.8661   14.0134   -0.3871 C.2       1 <0>         0.0135
     27 O2          2.2574   12.7325   -0.4112 O.3       1 <0>        -0.1582
     28 C19         2.7153   15.1978   -0.7706 C.3       1 <0>         0.1544
     29 O3          3.4160   15.6741    0.3801 O.3       1 <0>        -0.5648
     30 C20         5.9334    3.4579   -0.8982 C.2       1 <0>         0.5228
     31 O4          6.9577    4.0629   -1.1850 O.co2     1 <0>        -0.6779
     32 O5          5.9244    2.2342   -0.9010 O.co2     1 <0>        -0.6574
     33 H1          1.4793    1.6259   -4.0058 H         1 <0>         0.1305
     34 H2          2.3687    3.0151   -2.1791 H         1 <0>         0.1303
     35 H3          2.7965   -1.8937   -1.9861 H         1 <0>         0.1369
     36 H4          3.9511    1.7072    0.7876 H         1 <0>         0.4182
     37 H5          5.5650    6.1277   -0.9895 H         1 <0>         0.1568
     38 H6          4.3757    8.2956   -0.7652 H         1 <0>         0.1347
     39 H7          3.1771   10.2889   -0.5238 H         1 <0>         0.3901
     40 H8         -0.7940   12.4318    0.6435 H         1 <0>         0.1668
     41 H9         -0.0084   14.9610    0.1736 H         1 <0>         0.1612
     42 H10         3.4326   14.8984   -1.5347 H         1 <0>         0.0701
     43 H11         2.0776   15.9906   -1.1616 H         1 <0>         0.0863
     44 H12         3.9837   16.4375    0.2069 H         1 <0>         0.3906
@<TRIPOS>BOND
     1    1    6 ar
     2    1    2 ar
     3    1   33 1
     4    2    3 ar
     5    2   34 1
     6    3    4 ar
     7    3    9 1
     8    4    5 ar
     9    4    8 1
    10    5    6 ar
    11    5   35 1
    12    6    7 1
    13    9   10 1
    14    9   36 1
    15   10   15 ar
    16   10   11 ar
    17   11   12 ar
    18   11   30 1
    19   12   13 ar
    20   12   37 1
    21   13   14 ar
    22   13   18 1
    23   14   15 ar
    24   14   17 1
    25   15   16 1
    26   18   19 2
    27   18   38 1
    28   19   20 1
    29   20   21 am
    30   20   39 1
    31   21   22 2
    32   21   23 1
    33   23   27 1
    34   23   24 2
    35   24   25 1
    36   24   40 1
    37   25   26 2
    38   25   41 1
    39   26   27 1
    40   26   28 1
    41   28   29 1
    42   28   42 1
    43   28   43 1
    44   29   44 1
    45   30   31 2
    46   30   32 1
@<TRIPOS>MOLECULE
CHEMBL213478
   52    56     0     0     0
SMALL
USER_CHARGES

@<TRIPOS>ATOM
      1 C1         -0.7644    1.4194    0.4887 C.3       1 <0>        -0.1181
      2 C2         -0.5460   -0.0656    0.3535 C.ar      1 <0>        -0.0877
      3 C3         -0.4569   -0.6388   -0.8996 C.ar      1 <0>        -0.0941
      4 C4         -0.2567   -1.9998   -1.0287 C.ar      1 <0>        -0.1428
      5 C5         -0.1439   -2.7998    0.1025 C.ar      1 <0>         0.1633
      6 C6         -0.2323   -2.2318    1.3644 C.ar      1 <0>        -0.1053
      7 C7         -0.4284   -0.8591    1.4933 C.ar      1 <0>        -0.0232
      8 C8         -0.5178   -0.2438    2.8403 C.ar      1 <0>        -0.0672
      9 C9          0.2560    0.8881    3.1415 C.ar      1 <0>        -0.0489
     10 C10         0.1935    1.4719    4.3676 C.ar      1 <0>        -0.1219
     11 C11        -0.6547    0.9421    5.3527 C.ar      1 <0>         0.2162
     12 C12        -1.4415   -0.2019    5.0581 C.ar      1 <0>        -0.2127
     13 C13        -1.3675   -0.7869    3.7877 C.ar      1 <0>        -0.0387
     14 C14        -2.2839   -0.7122    6.0644 C.ar      1 <0>         0.2422
     15 N1         -2.3044   -0.1062    7.2330 N.ar      1 <0>        -0.5592
     16 C15        -1.5524    0.9657    7.4751 C.ar      1 <0>         0.5675
     17 N2         -0.7453    1.4876    6.5718 N.ar      1 <0>        -0.5734
     18 N3         -1.6204    1.5557    8.7241 N.pl3     1 <0>        -0.7015
     19 C16        -2.5072    1.0001    9.7494 C.3       1 <0>         0.1045
     20 N4          0.0582   -4.1768   -0.0321 N.pl3     1 <0>        -0.6425
     21 C17         0.7578   -4.8695    0.9353 C.2       1 <0>         0.5413
     22 N5          0.9310   -6.2239    0.9596 N.pl3     1 <0>        -0.6157
     23 H1          0.5902   -6.8593    0.3108 H         1 <0>         0.4254
     24 C18         1.6845   -6.5213    2.0831 C.ar      1 <0>         0.0707
     25 C19         2.1715   -7.6988    2.6302 C.ar      1 <0>        -0.0995
     26 C20         2.9117   -7.6607    3.7938 C.ar      1 <0>        -0.0728
     27 C21         3.1721   -6.4516    4.4217 C.ar      1 <0>        -0.1817
     28 C22         2.6960   -5.2729    3.8929 C.ar      1 <0>        -0.0187
     29 C23         1.9456   -5.2941    2.7145 C.ar      1 <0>         0.0770
     30 N6          1.3592   -4.3253    1.9636 N.2       1 <0>        -0.5168
     31 C24         3.9818   -6.4279    5.6924 C.3       1 <0>         0.5128
     32 F1          4.3522   -7.7331    6.0337 F         1 <0>        -0.1761
     33 F2          5.1302   -5.6527    5.4993 F         1 <0>        -0.1755
     34 F3          3.2146   -5.8761    6.7240 F         1 <0>        -0.1757
     35 H2          0.1997    1.9270    0.5205 H         1 <0>         0.0721
     36 H3         -1.3377    1.7815   -0.3647 H         1 <0>         0.0668
     37 H4         -1.3131    1.6237    1.4081 H         1 <0>         0.0703
     38 H5         -0.5442   -0.0214   -1.7814 H         1 <0>         0.1295
     39 H6         -0.1881   -2.4433   -2.0110 H         1 <0>         0.1255
     40 H7         -0.1453   -2.8516    2.2446 H         1 <0>         0.1457
     41 H8          0.9107    1.3010    2.3882 H         1 <0>         0.1341
     42 H9          0.7959    2.3419    4.5836 H         1 <0>         0.1386
     43 H10        -1.9644   -1.6554    3.5513 H         1 <0>         0.1329
     44 H11        -2.8993   -1.5806    5.8817 H         1 <0>         0.1766
     45 H12        -1.0810    2.3374    8.9213 H         1 <0>         0.4162
     46 H13        -2.4263    1.5935   10.6601 H         1 <0>         0.0767
     47 H14        -3.5363    1.0231    9.3909 H         1 <0>         0.0596
     48 H15        -2.2187   -0.0297    9.9600 H         1 <0>         0.0600
     49 H16        -0.2933   -4.6453   -0.8054 H         1 <0>         0.4210
     50 H17         1.9717   -8.6435    2.1465 H         1 <0>         0.1356
     51 H18         3.2905   -8.5784    4.2189 H         1 <0>         0.1464
     52 H19         2.9019   -4.3350    4.3873 H         1 <0>         0.1413
@<TRIPOS>BOND
     1    1    2 1
     2    1   35 1
     3    1   36 1
     4    1   37 1
     5    2    7 ar
     6    2    3 ar
     7    3    4 ar
     8    3   38 1
     9    4    5 ar
    10    4   39 1
    11    5    6 ar
    12    5   20 1
    13    6    7 ar
    14    6   40 1
    15    7    8 1
    16    8   13 ar
    17    8    9 ar
    18    9   10 ar
    19    9   41 1
    20   10   11 ar
    21   10   42 1
    22   11   17 ar
    23   11   12 ar
    24   12   13 ar
    25   12   14 ar
    26   13   43 1
    27   14   15 ar
    28   14   44 1
    29   15   16 ar
    30   16   17 ar
    31   16   18 1
    32   18   19 1
    33   18   45 1
    34   19   46 1
    35   19   47 1
    36   19   48 1
    37   20   21 1
    38   20   49 1
    39   21   30 2
    40   21   22 1
    41   22   23 1
    42   22   24 1
    43   24   29 ar
    44   24   25 ar
    45   25   26 ar
    46   25   50 1
    47   26   27 ar
    48   26   51 1
    49   27   28 ar
    50   27   31 1
    51   28   29 ar
    52   28   52 1
    53   29   30 1
    54   31   32 1
    55   31   33 1
    56   31   34 1
@<TRIPOS>MOLECULE
CHEMBL572881
   51    54     0     0     0
SMALL
USER_CHARGES

@<TRIPOS>ATOM
      1 C1          0.7468    1.4716   -0.2962 C.3       1 <0>        -0.1359
      2 C2         -0.0126    0.2109    0.1219 C.3       1 <0>        -0.0259
      3 C3         -1.3841    0.5810    0.7097 C.3       1 <0>         0.1241
      4 N1         -1.3578    0.0858    2.0884 N.pl3     1 <0>        -0.7443
      5 C4         -0.1308   -0.5237    2.3558 C.ar      1 <0>         0.2168
      6 C5          0.7087   -0.4891    1.2521 C.ar      1 <0>        -0.1719
      7 C6          1.9737   -1.0422    1.3132 C.ar      1 <0>        -0.0383
      8 C7          2.4173   -1.6377    2.4780 C.ar      1 <0>        -0.1686
      9 C8          1.5867   -1.6793    3.5908 C.ar      1 <0>         0.1899
     10 C9          0.3188   -1.1248    3.5317 C.ar      1 <0>        -0.2101
     11 N2          2.0314   -2.2815    4.7721 N.am      1 <0>        -0.6658
     12 C10         3.3340   -2.2177    5.1121 C.2       1 <0>         0.5798
     13 O1          4.1056   -1.5583    4.4423 O.2       1 <0>        -0.5258
     14 C11         3.8233   -2.9473    6.2957 C.ar      1 <0>        -0.2731
     15 C12         2.9747   -3.8049    7.0055 C.ar      1 <0>         0.0067
     16 C13         3.4823   -4.4663    8.1093 C.ar      1 <0>        -0.2465
     17 C14         4.8007   -4.2646    8.4781 C.ar      1 <0>         0.1892
     18 N3          5.5844   -3.4525    7.7964 N.ar      1 <0>        -0.5474
     19 C15         5.1519   -2.7990    6.7289 C.ar      1 <0>         0.4589
     20 N4          6.0106   -1.9622    6.0402 N.pl3     1 <0>        -0.6963
     21 C16         7.3594   -1.7126    6.5545 C.3       1 <0>         0.1647
     22 C17         8.0854   -0.7738    5.6257 C.ar      1 <0>        -0.0637
     23 C18         8.8316   -1.2620    4.5640 C.ar      1 <0>        -0.1529
     24 C19         9.4839   -0.3708    3.7331 C.ar      1 <0>         0.0988
     25 N5          9.4026    0.9288    3.9414 N.ar      1 <0>        -0.4794
     26 C20         8.7024    1.4285    4.9408 C.ar      1 <0>         0.0990
     27 C21         8.0184    0.5989    5.8091 C.ar      1 <0>        -0.1529
     28 C22        -0.1773   -0.7323   -1.0715 C.3       1 <0>        -0.1351
     29 H1          1.7482    1.1988   -0.6294 H         1 <0>         0.0615
     30 H2          0.2143    1.9632   -1.1104 H         1 <0>         0.0602
     31 H3          0.8190    2.1508    0.5532 H         1 <0>         0.0571
     32 H4         -1.5207    1.6624    0.6988 H         1 <0>         0.0684
     33 H5         -2.1804    0.0929    0.1478 H         1 <0>         0.0687
     34 H6         -2.0866    0.1697    2.7230 H         1 <0>         0.4116
     35 H7          2.6177   -1.0092    0.4468 H         1 <0>         0.1223
     36 H8          3.4061   -2.0696    2.5233 H         1 <0>         0.1332
     37 H9         -0.3243   -1.1585    4.3988 H         1 <0>         0.1199
     38 H10         1.4023   -2.7451    5.3467 H         1 <0>         0.4099
     39 H11         1.9488   -3.9465    6.6991 H         1 <0>         0.1351
     40 H12         2.8542   -5.1349    8.6793 H         1 <0>         0.1402
     41 H13         5.1949   -4.7817    9.3404 H         1 <0>         0.1633
     42 H14         5.7198   -1.5404    5.2165 H         1 <0>         0.4273
     43 H15         7.2931   -1.2639    7.5456 H         1 <0>         0.0786
     44 H16         7.9042   -2.6545    6.6178 H         1 <0>         0.0816
     45 H17         8.9026   -2.3254    4.3887 H         1 <0>         0.1365
     46 H18        10.0672   -0.7431    2.9039 H         1 <0>         0.1584
     47 H19         8.6595    2.4986    5.0799 H         1 <0>         0.1581
     48 H20         7.4425    1.0143    6.6228 H         1 <0>         0.1358
     49 H21         0.8053   -1.0276   -1.4395 H         1 <0>         0.0614
     50 H22        -0.7302   -1.6186   -0.7605 H         1 <0>         0.0571
     51 H23        -0.7242   -0.2225   -1.8647 H         1 <0>         0.0600
@<TRIPOS>BOND
     1    1    2 1
     2    1   29 1
     3    1   30 1
     4    1   31 1
     5    2    6 1
     6    2    3 1
     7    2   28 1
     8    3    4 1
     9    3   32 1
    10    3   33 1
    11    4    5 1
    12    4   34 1
    13    5   10 ar
    14    5    6 ar
    15    6    7 ar
    16    7    8 ar
    17    7   35 1
    18    8    9 ar
    19    8   36 1
    20    9   10 ar
    21    9   11 1
    22   10   37 1
    23   11   12 am
    24   11   38 1
    25   12   13 2
    26   12   14 1
    27   14   19 ar
    28   14   15 ar
    29   15   16 ar
    30   15   39 1
    31   16   17 ar
    32   16   40 1
    33   17   18 ar
    34   17   41 1
    35   18   19 ar
    36   19   20 1
    37   20   21 1
    38   20   42 1
    39   21   22 1
    40   21   43 1
    41   21   44 1
    42   22   27 ar
    43   22   23 ar
    44   23   24 ar
    45   23   45 1
    46   24   25 ar
    47   24   46 1
    48   25   26 ar
    49   26   27 ar
    50   26   47 1
    51   27   48 1
    52   28   49 1
    53   28   50 1
    54   28   51 1
@<TRIPOS>MOLECULE
CHEMBL271984
   47    50     0     0     0
SMALL
USER_CHARGES

@<TRIPOS>ATOM
      1 C1         -0.0620    1.2690    0.0299 C.3       1 <0>         0.0149
      2 O1         -0.0642   -0.1594   -0.0111 O.3       1 <0>        -0.2865
      3 C2         -1.2768   -0.7745   -0.0307 C.ar      1 <0>         0.1344
      4 C3         -2.4160   -0.0229   -0.0167 C.ar      1 <0>        -0.1360
      5 C4         -3.6670   -0.6577   -0.0374 C.ar      1 <0>        -0.0903
      6 C5         -4.8675    0.0875   -0.0243 C.ar      1 <0>         0.2832
      7 C6         -6.0633   -0.6084   -0.0466 C.ar      1 <0>        -0.2640
      8 C7         -6.0515   -1.9971   -0.0807 C.ar      1 <0>         0.2260
      9 N1         -4.9307   -2.6796   -0.0922 N.ar      1 <0>        -0.4818
     10 C8         -3.7385   -2.0717   -0.0725 C.ar      1 <0>         0.1817
     11 C9         -2.5483   -2.8176   -0.0858 C.ar      1 <0>        -0.2357
     12 C10        -1.3443   -2.1745   -0.0710 C.ar      1 <0>         0.2161
     13 O2         -0.1960   -2.9009   -0.0900 O.3       1 <0>        -0.2777
     14 C11        -0.3285   -4.3231   -0.1310 C.3       1 <0>         0.0117
     15 O3         -4.8483    1.4429    0.0096 O.3       1 <0>        -0.2126
     16 C12        -6.0343    2.1000   -0.0786 C.ar      1 <0>         0.0434
     17 C13        -6.8810    2.1482    1.0328 C.ar      1 <0>        -0.1370
     18 C14        -8.0752    2.7993    0.9736 C.ar      1 <0>        -0.0830
     19 C15        -8.4650    3.4317   -0.2153 C.ar      1 <0>        -0.0035
     20 C16        -7.6102    3.3860   -1.3437 C.ar      1 <0>        -0.0536
     21 C17        -6.3819    2.7103   -1.2505 C.ar      1 <0>        -0.0791
     22 C18        -8.0011    4.0212   -2.5355 C.ar      1 <0>        -0.0683
     23 C19        -9.1946    4.6756   -2.6021 C.ar      1 <0>        -0.1164
     24 C20       -10.0460    4.7317   -1.5060 C.ar      1 <0>        -0.0535
     25 C21        -9.7012    4.1185   -0.3105 C.ar      1 <0>        -0.1294
     26 C22       -10.6104    4.1812    0.8490 C.2       1 <0>         0.5672
     27 O4        -10.2550    3.7399    1.9249 O.2       1 <0>        -0.5340
     28 N2        -11.8352    4.7276    0.7161 N.am      1 <0>        -0.8430
     29 H1          0.9662    1.6305    0.0419 H         1 <0>         0.1186
     30 H2         -0.5738    1.6585   -0.8501 H         1 <0>         0.0667
     31 H3         -0.5767    1.6075    0.9291 H         1 <0>         0.0673
     32 H4         -2.3548    1.0550    0.0106 H         1 <0>         0.1725
     33 H5         -7.0018   -0.0741   -0.0372 H         1 <0>         0.1853
     34 H6         -6.9908   -2.5299   -0.0979 H         1 <0>         0.2123
     35 H7         -2.5857   -3.8967   -0.1123 H         1 <0>         0.1712
     36 H8         -0.8753   -4.6626    0.7487 H         1 <0>         0.0693
     37 H9         -0.8725   -4.6115   -1.0305 H         1 <0>         0.0692
     38 H10         0.6610   -4.7801   -0.1426 H         1 <0>         0.1215
     39 H11        -6.5841    1.6621    1.9504 H         1 <0>         0.1381
     40 H12        -8.7202    2.8281    1.8394 H         1 <0>         0.1841
     41 H13        -5.7182    2.6702   -2.1015 H         1 <0>         0.1460
     42 H14        -7.3541    3.9907   -3.3997 H         1 <0>         0.1408
     43 H15        -9.4835    5.1596   -3.5234 H         1 <0>         0.1422
     44 H16       -10.9861    5.2573   -1.5856 H         1 <0>         0.1378
     45 H17       -12.1187    5.0796   -0.1422 H         1 <0>         0.4037
     46 H18       -12.4333    4.7689    1.4787 H         1 <0>         0.4126
     47 H19        -4.9671   -3.6486   -0.1159 H         1 <0>         0.4474
@<TRIPOS>BOND
     1    1    2 1
     2    1   29 1
     3    1   30 1
     4    1   31 1
     5    2    3 1
     6    3   12 ar
     7    3    4 ar
     8    4    5 ar
     9    4   32 1
    10    5   10 ar
    11    5    6 ar
    12    6    7 ar
    13    6   15 1
    14    7    8 ar
    15    7   33 1
    16    8    9 ar
    17    8   34 1
    18    9   10 ar
    19    9   47 1
    20   10   11 ar
    21   11   12 ar
    22   11   35 1
    23   12   13 1
    24   13   14 1
    25   14   36 1
    26   14   37 1
    27   14   38 1
    28   15   16 1
    29   16   21 ar
    30   16   17 ar
    31   17   18 ar
    32   17   39 1
    33   18   19 ar
    34   18   40 1
    35   19   25 ar
    36   19   20 ar
    37   20   21 ar
    38   20   22 ar
    39   21   41 1
    40   22   23 ar
    41   22   42 1
    42   23   24 ar
    43   23   43 1
    44   24   25 ar
    45   24   44 1
    46   25   26 1
    47   26   27 2
    48   26   28 am
    49   28   45 1
    50   28   46 1
@<TRIPOS>MOLECULE
CHEMBL186526
   52    54     0     0     0
SMALL
USER_CHARGES

@<TRIPOS>ATOM
      1 C1         -0.3920    1.3196    0.2829 C.3       1 <0>        -0.1144
      2 C2         -0.1867   -0.1617    0.0967 C.ar      1 <0>        -0.1268
      3 C3         -0.3263   -0.7256   -1.1570 C.ar      1 <0>        -0.0825
      4 C4         -0.1394   -2.0830   -1.3319 C.ar      1 <0>        -0.1290
      5 C5          0.1904   -2.8860   -0.2467 C.ar      1 <0>         0.1580
      6 C6          0.3318   -2.3229    1.0134 C.ar      1 <0>        -0.1501
      7 C7          0.1484   -0.9579    1.1847 C.ar      1 <0>         0.1606
      8 N1          0.2955   -0.3855    2.4522 N.am      1 <0>        -0.6629
      9 C8          0.0535   -1.1204    3.5557 C.2       1 <0>         0.5622
     10 O1         -0.2158   -2.3016    3.4526 O.2       1 <0>        -0.5145
     11 C9          0.1154   -0.4914    4.8893 C.ar      1 <0>        -0.1506
     12 C10         0.4192    0.8673    5.0097 C.ar      1 <0>        -0.0674
     13 C11         0.4760    1.4504    6.2558 C.ar      1 <0>        -0.1527
     14 C12         0.2322    0.6893    7.3931 C.ar      1 <0>         0.1394
     15 C13        -0.0698   -0.6625    7.2777 C.ar      1 <0>        -0.1532
     16 C14        -0.1352   -1.2517    6.0348 C.ar      1 <0>        -0.0369
     17 O2          0.2896    1.2676    8.6195 O.3       1 <0>        -0.4971
     18 N2          0.3790   -4.2602   -0.4245 N.am      1 <0>        -0.6664
     19 C15         0.9498   -4.7214   -1.5549 C.2       1 <0>         0.5619
     20 O3          1.2253   -3.9516   -2.4545 O.2       1 <0>        -0.5163
     21 C16         1.2409   -6.1634   -1.7009 C.ar      1 <0>        -0.0899
     22 C17         0.9202   -7.0505   -0.6714 C.ar      1 <0>        -0.1453
     23 C18         1.1928   -8.3959   -0.8100 C.ar      1 <0>        -0.0758
     24 C19         1.7835   -8.8709   -1.9662 C.ar      1 <0>        -0.1713
     25 C20         2.1068   -7.9963   -2.9969 C.ar      1 <0>         0.2078
     26 C21         1.8316   -6.6431   -2.8697 C.ar      1 <0>        -0.1355
     27 N3          2.7044   -8.4812   -4.1629 N.pl3     1 <0>        -0.6372
     28 C22         2.9904   -9.9115   -4.2993 C.3       1 <0>         0.0917
     29 C23         3.0451   -7.5592   -5.2493 C.3       1 <0>         0.0891
     30 H1          0.5556    1.8387    0.1393 H         1 <0>         0.0713
     31 H2         -1.1179    1.6802   -0.4458 H         1 <0>         0.0736
     32 H3         -0.7623    1.5113    1.2900 H         1 <0>         0.0611
     33 H4         -0.5825   -0.1037   -2.0020 H         1 <0>         0.1311
     34 H5         -0.2499   -2.5208   -2.3130 H         1 <0>         0.1399
     35 H6          0.5880   -2.9448    1.8584 H         1 <0>         0.1542
     36 H7          0.5717    0.5405    2.5370 H         1 <0>         0.4114
     37 H8          0.6094    1.4592    4.1265 H         1 <0>         0.1303
     38 H9          0.7107    2.5004    6.3497 H         1 <0>         0.1385
     39 H10        -0.2583   -1.2506    8.1638 H         1 <0>         0.1394
     40 H11        -0.3746   -2.3010    5.9456 H         1 <0>         0.1435
     41 H12        -0.5533    1.6320    8.9223 H         1 <0>         0.3984
     42 H13         0.0990   -4.8815    0.2658 H         1 <0>         0.4128
     43 H14         0.4590   -6.6834    0.2335 H         1 <0>         0.1228
     44 H15         0.9443   -9.0803   -0.0124 H         1 <0>         0.1302
     45 H16         1.9948   -9.9251   -2.0687 H         1 <0>         0.1284
     46 H17         2.0782   -5.9623   -3.6711 H         1 <0>         0.1377
     47 H18         2.1327  -10.4123   -4.7483 H         1 <0>         0.0505
     48 H19         3.8649  -10.0481   -4.9353 H         1 <0>         0.0689
     49 H20         3.1863  -10.3382   -3.3156 H         1 <0>         0.0694
     50 H21         4.0582   -7.1845   -5.1035 H         1 <0>         0.0512
     51 H22         2.9854   -8.0836   -6.2030 H         1 <0>         0.0692
     52 H23         2.3452   -6.7236   -5.2496 H         1 <0>         0.0713
@<TRIPOS>BOND
     1    1    2 1
     2    1   30 1
     3    1   31 1
     4    1   32 1
     5    2    7 ar
     6    2    3 ar
     7    3    4 ar
     8    3   33 1
     9    4    5 ar
    10    4   34 1
    11    5    6 ar
    12    5   18 1
    13    6    7 ar
    14    6   35 1
    15    7    8 1
    16    8    9 am
    17    8   36 1
    18    9   10 2
    19    9   11 1
    20   11   16 ar
    21   11   12 ar
    22   12   13 ar
    23   12   37 1
    24   13   14 ar
    25   13   38 1
    26   14   15 ar
    27   14   17 1
    28   15   16 ar
    29   15   39 1
    30   16   40 1
    31   17   41 1
    32   18   19 am
    33   18   42 1
    34   19   20 2
    35   19   21 1
    36   21   26 ar
    37   21   22 ar
    38   22   23 ar
    39   22   43 1
    40   23   24 ar
    41   23   44 1
    42   24   25 ar
    43   24   45 1
    44   25   26 ar
    45   25   27 1
    46   26   46 1
    47   27   28 1
    48   27   29 1
    49   28   47 1
    50   28   48 1
    51   28   49 1
    52   29   50 1
    53   29   51 1
    54   29   52 1
@<TRIPOS>MOLECULE
CHEMBL186564
   41    43     0     0     0
SMALL
USER_CHARGES

@<TRIPOS>ATOM
      1 C1         -2.3214    0.0989    0.8124 C.3       1 <0>        -0.1148
      2 C2         -1.1014   -0.6763    0.3861 C.ar      1 <0>        -0.0619
      3 C3         -1.0988   -1.3543   -0.8176 C.ar      1 <0>        -0.1115
      4 C4          0.0196   -2.0660   -1.2100 C.ar      1 <0>        -0.0942
      5 C5          1.1396   -2.1025   -0.3993 C.ar      1 <0>        -0.1129
      6 C6          1.1438   -1.4270    0.8061 C.ar      1 <0>        -0.0205
      7 C7          0.0229   -0.7052    1.2000 C.ar      1 <0>         0.1394
      8 N1          0.0256   -0.0146    2.4166 N.am      1 <0>        -0.6806
      9 C8         -0.3544   -0.6409    3.5479 C.2       1 <0>         0.6248
     10 O1         -0.6125   -1.8307    3.5278 O.2       1 <0>        -0.5062
     11 C9         -0.4568    0.1084    4.7995 C.2       1 <0>        -0.3129
     12 C10        -0.8179   -0.3274    6.0668 C.2       1 <0>         0.1722
     13 N2         -0.8226    0.5769    7.0134 N.2       1 <0>        -0.5218
     14 C11        -0.4999    1.8343    6.7681 C.2       1 <0>         0.3134
     15 S1         -0.1443    1.8366    5.1231 S.3       1 <0>         0.1531
     16 N3         -0.4581    2.8940    7.6529 N.pl3     1 <0>        -0.5745
     17 C12        -0.7814    2.6967    8.9869 C.ar      1 <0>         0.5480
     18 N4         -1.1229    1.4842    9.3968 N.ar      1 <0>        -0.5054
     19 C13        -1.4365    1.2616   10.6623 C.ar      1 <0>         0.2115
     20 C14        -1.4046    2.3155   11.5622 C.ar      1 <0>        -0.2612
     21 C15        -1.0429    3.5711   11.0994 C.ar      1 <0>         0.2109
     22 N5         -0.7360    3.7240    9.8219 N.ar      1 <0>        -0.5558
     23 C16        -0.9943    4.7463   12.0414 C.3       1 <0>        -0.1072
     24 C17        -1.8244   -0.1207   11.1202 C.3       1 <0>        -0.1065
     25 Cl1         2.5495   -1.4735    1.8237 Cl        1 <0>        -0.0569
     26 H1         -2.2505    1.1211    0.4407 H         1 <0>         0.0769
     27 H2         -3.2141   -0.3751    0.4043 H         1 <0>         0.0743
     28 H3         -2.3820    0.1115    1.9007 H         1 <0>         0.0672
     29 H4         -1.9719   -1.3286   -1.4529 H         1 <0>         0.1350
     30 H5          0.0186   -2.5950   -2.1516 H         1 <0>         0.1370
     31 H6          2.0116   -2.6596   -0.7086 H         1 <0>         0.1384
     32 H7          0.3010    0.9150    2.4460 H         1 <0>         0.4078
     33 H8         -1.0811   -1.3567    6.2614 H         1 <0>         0.1889
     34 H9         -0.2026    3.7763    7.3411 H         1 <0>         0.4434
     35 H10        -1.6564    2.1618   12.6011 H         1 <0>         0.1498
     36 H11         0.0023    4.8225   12.4763 H         1 <0>         0.0882
     37 H12        -1.2226    5.6607   11.4937 H         1 <0>         0.0836
     38 H13        -1.7275    4.6059   12.8357 H         1 <0>         0.0849
     39 H14        -0.9331   -0.6616   11.4382 H         1 <0>         0.0873
     40 H15        -2.5207   -0.0448   11.9554 H         1 <0>         0.0821
     41 H16        -2.3001   -0.6556   10.2982 H         1 <0>         0.0864
@<TRIPOS>BOND
     1    1    2 1
     2    1   26 1
     3    1   27 1
     4    1   28 1
     5    2    7 ar
     6    2    3 ar
     7    3    4 ar
     8    3   29 1
     9    4    5 ar
    10    4   30 1
    11    5    6 ar
    12    5   31 1
    13    6    7 ar
    14    6   25 1
    15    7    8 1
    16    8    9 am
    17    8   32 1
    18    9   10 2
    19    9   11 1
    20   11   15 1
    21   11   12 2
    22   12   13 1
    23   12   33 1
    24   13   14 2
    25   14   15 1
    26   14   16 1
    27   16   17 1
    28   16   34 1
    29   17   22 ar
    30   17   18 ar
    31   18   19 ar
    32   19   20 ar
    33   19   24 1
    34   20   21 ar
    35   20   35 1
    36   21   22 ar
    37   21   23 1
    38   23   36 1
    39   23   37 1
    40   23   38 1
    41   24   39 1
    42   24   40 1
    43   24   41 1
@<TRIPOS>MOLECULE
CHEMBL215726
   81    86     0     0     0
SMALL
USER_CHARGES

@<TRIPOS>ATOM
      1 C1         -0.0711    1.1198   -0.0297 C.3       1 <0>        -0.1116
      2 C2         -0.2472   -0.3742    0.0612 C.ar      1 <0>        -0.0731
      3 C3         -0.3725   -1.1268   -1.0904 C.ar      1 <0>        -0.1151
      4 C4         -0.5340   -2.4975   -1.0077 C.ar      1 <0>        -0.0978
      5 C5         -0.5706   -3.1184    0.2271 C.ar      1 <0>        -0.1151
      6 C6         -0.4453   -2.3702    1.3817 C.ar      1 <0>        -0.0748
      7 C7         -0.2778   -0.9954    1.3012 C.ar      1 <0>         0.0881
      8 O1         -0.1491   -0.2577    2.4356 O.3       1 <0>        -0.2916
      9 C8         -1.2691    0.2270    3.0051 C.2       1 <0>         0.6583
     10 O2         -2.3524    0.0003    2.5040 O.2       1 <0>        -0.5145
     11 N1         -1.1882    0.9636    4.1308 N.am      1 <0>        -0.4989
     12 C9         -2.3403    1.5552    4.6652 C.ar      1 <0>         0.1420
     13 C10        -3.3596    0.7582    5.1718 C.ar      1 <0>        -0.0911
     14 C11        -4.4974    1.3379    5.6996 C.ar      1 <0>        -0.1025
     15 C12        -4.6280    2.7123    5.7266 C.ar      1 <0>        -0.0981
     16 C13        -3.6107    3.5192    5.2207 C.ar      1 <0>        -0.0345
     17 C14        -2.4613    2.9358    4.6939 C.ar      1 <0>        -0.0980
     18 C15        -3.7495    4.9964    5.2485 C.ar      1 <0>        -0.0484
     19 C16        -2.7353    5.8037    4.7376 C.ar      1 <0>        -0.1094
     20 C17        -2.8698    7.1771    4.7655 C.ar      1 <0>        -0.1175
     21 C18        -4.0086    7.7522    5.2998 C.ar      1 <0>        -0.1153
     22 C19        -5.0184    6.9556    5.8088 C.ar      1 <0>        -0.1158
     23 C20        -4.8970    5.5810    5.7803 C.ar      1 <0>        -0.1070
     24 C21         0.0396    1.1366    4.7624 C.ar      1 <0>         0.4419
     25 C22         0.5089    0.1860    5.6699 C.ar      1 <0>        -0.2533
     26 C23         1.7339    0.3987    6.2731 C.ar      1 <0>         0.2027
     27 N2          2.4221    1.4905    5.9747 N.ar      1 <0>        -0.5530
     28 C24         1.9516    2.3762    5.1090 C.ar      1 <0>         0.5779
     29 N3          0.7843    2.2062    4.5060 N.ar      1 <0>        -0.5582
     30 N4          2.7008    3.5054    4.8238 N.pl3     1 <0>        -0.6366
     31 C25         3.9084    3.7331    5.4963 C.ar      1 <0>         0.1309
     32 C26         4.7304    2.6642    5.8283 C.ar      1 <0>        -0.0645
     33 C27         5.9209    2.8886    6.4908 C.ar      1 <0>        -0.1648
     34 C28         6.2962    4.1832    6.8251 C.ar      1 <0>         0.1795
     35 C29         5.4741    5.2521    6.4930 C.ar      1 <0>        -0.1634
     36 C30         4.2862    5.0280    5.8259 C.ar      1 <0>        -0.0981
     37 N5          7.5027    4.4106    7.4969 N.pl3     1 <0>        -0.6456
     38 C31         7.8538    5.7522    7.9879 C.3       1 <0>         0.1007
     39 C32         8.2665    5.6384    9.4591 C.3       1 <0>        -0.0232
     40 N6          9.3399    4.6450    9.5899 N.4       1 <0>        -0.3837
     41 C33         8.8398    3.3161    9.2160 C.3       1 <0>        -0.0233
     42 C34         8.4529    3.3137    7.7377 C.3       1 <0>         0.0994
     43 C35         9.8105    4.6155   10.9812 C.3       1 <0>        -0.0470
     44 C36        -0.4852   -3.0476    2.7273 C.3       1 <0>        -0.1116
     45 H1          0.9911    1.3576   -0.0877 H         1 <0>         0.0760
     46 H2         -0.5759    1.4915   -0.9213 H         1 <0>         0.0745
     47 H3         -0.5011    1.5907    0.8543 H         1 <0>         0.0594
     48 H4         -0.3446   -0.6441   -2.0561 H         1 <0>         0.1332
     49 H5         -0.6322   -3.0841   -1.9092 H         1 <0>         0.1327
     50 H6         -0.6976   -4.1891    0.2892 H         1 <0>         0.1337
     51 H7         -3.2624   -0.3173    5.1527 H         1 <0>         0.1297
     52 H8         -5.2871    0.7143    6.0919 H         1 <0>         0.1375
     53 H9         -5.5188    3.1620    6.1396 H         1 <0>         0.1341
     54 H10        -1.6681    3.5571    4.3050 H         1 <0>         0.1345
     55 H11        -1.8453    5.3557    4.3208 H         1 <0>         0.1222
     56 H12        -2.0843    7.8038    4.3697 H         1 <0>         0.1241
     57 H13        -4.1096    8.8273    5.3200 H         1 <0>         0.1246
     58 H14        -5.9051    7.4099    6.2255 H         1 <0>         0.1271
     59 H15        -5.6879    4.9598    6.1739 H         1 <0>         0.1275
     60 H16        -0.0723   -0.6958    5.8959 H         1 <0>         0.1528
     61 H17         2.1258   -0.3173    6.9803 H         1 <0>         0.1808
     62 H18         2.3894    4.1387    4.1583 H         1 <0>         0.4253
     63 H19         4.4384    1.6574    5.5687 H         1 <0>         0.1461
     64 H20         6.5600    2.0573    6.7493 H         1 <0>         0.1252
     65 H21         5.7658    6.2588    6.7533 H         1 <0>         0.1262
     66 H22         3.6489    5.8597    5.5637 H         1 <0>         0.1304
     67 H23         8.6840    6.1501    7.4043 H         1 <0>         0.0867
     68 H24         6.9907    6.4120    7.8996 H         1 <0>         0.1256
     69 H25         8.6219    6.6062    9.8128 H         1 <0>         0.1402
     70 H26         7.4083    5.3265   10.0543 H         1 <0>         0.1321
     71 H27         9.6175    2.5726    9.3905 H         1 <0>         0.1407
     72 H28         7.9641    3.0745    9.8185 H         1 <0>         0.1322
     73 H29         7.9857    2.3621    7.4840 H         1 <0>         0.1269
     74 H30         9.3446    3.4612    7.1284 H         1 <0>         0.0865
     75 H31         8.9838    4.3468   11.6387 H         1 <0>         0.1214
     76 H32        10.6075    3.8784   11.0796 H         1 <0>         0.1250
     77 H33        10.1895    5.5994   11.2575 H         1 <0>         0.1248
     78 H34         0.5250   -3.3333    3.0203 H         1 <0>         0.0776
     79 H35        -0.8979   -2.3617    3.4672 H         1 <0>         0.0579
     80 H36        -1.1117   -3.9376    2.6676 H         1 <0>         0.0755
     81 H37        10.1059    4.8975    8.9836 H         1 <0>         0.4246
@<TRIPOS>BOND
     1    1    2 1
     2    1   45 1
     3    1   46 1
     4    1   47 1
     5    2    7 ar
     6    2    3 ar
     7    3    4 ar
     8    3   48 1
     9    4    5 ar
    10    4   49 1
    11    5    6 ar
    12    5   50 1
    13    6    7 ar
    14    6   44 1
    15    7    8 1
    16    8    9 1
    17    9   10 2
    18    9   11 am
    19   11   12 1
    20   11   24 1
    21   12   17 ar
    22   12   13 ar
    23   13   14 ar
    24   13   51 1
    25   14   15 ar
    26   14   52 1
    27   15   16 ar
    28   15   53 1
    29   16   17 ar
    30   16   18 1
    31   17   54 1
    32   18   23 ar
    33   18   19 ar
    34   19   20 ar
    35   19   55 1
    36   20   21 ar
    37   20   56 1
    38   21   22 ar
    39   21   57 1
    40   22   23 ar
    41   22   58 1
    42   23   59 1
    43   24   29 ar
    44   24   25 ar
    45   25   26 ar
    46   25   60 1
    47   26   27 ar
    48   26   61 1
    49   27   28 ar
    50   28   29 ar
    51   28   30 1
    52   30   31 1
    53   30   62 1
    54   31   36 ar
    55   31   32 ar
    56   32   33 ar
    57   32   63 1
    58   33   34 ar
    59   33   64 1
    60   34   35 ar
    61   34   37 1
    62   35   36 ar
    63   35   65 1
    64   36   66 1
    65   37   42 1
    66   37   38 1
    67   38   39 1
    68   38   67 1
    69   38   68 1
    70   39   40 1
    71   39   69 1
    72   39   70 1
    73   40   41 1
    74   40   43 1
    75   40   81 1
    76   41   42 1
    77   41   71 1
    78   41   72 1
    79   42   73 1
    80   42   74 1
    81   43   75 1
    82   43   76 1
    83   43   77 1
    84   44   78 1
    85   44   79 1
    86   44   80 1
@<TRIPOS>MOLECULE
CHEMBL215726__1
   80    85     0     0     0
SMALL
USER_CHARGES

@<TRIPOS>ATOM
      1 C1         -0.0924    1.1210   -0.0303 C.3       1 <0>        -0.1123
      2 C2         -0.2699   -0.3727    0.0600 C.ar      1 <0>        -0.0726
      3 C3         -0.4019   -1.1241   -1.0917 C.ar      1 <0>        -0.1159
      4 C4         -0.5648   -2.4947   -1.0094 C.ar      1 <0>        -0.1000
      5 C5         -0.5959   -3.1167    0.2250 C.ar      1 <0>        -0.1161
      6 C6         -0.4638   -2.3698    1.3796 C.ar      1 <0>        -0.0747
      7 C7         -0.2950   -0.9951    1.2996 C.ar      1 <0>         0.0908
      8 O1         -0.1597   -0.2587    2.4340 O.3       1 <0>        -0.2902
      9 C8         -1.2762    0.2269    3.0096 C.2       1 <0>         0.6602
     10 O2         -2.3624    0.0020    2.5137 O.2       1 <0>        -0.5199
     11 N1         -1.1887    0.9624    4.1356 N.am      1 <0>        -0.4971
     12 C9         -2.3374    1.5548    4.6763 C.ar      1 <0>         0.1453
     13 C10        -3.3556    0.7586    5.1863 C.ar      1 <0>        -0.0915
     14 C11        -4.4901    1.3393    5.7203 C.ar      1 <0>        -0.1041
     15 C12        -4.6182    2.7139    5.7503 C.ar      1 <0>        -0.0998
     16 C13        -3.6020    3.5200    5.2411 C.ar      1 <0>        -0.0352
     17 C14        -2.4560    2.9356    4.7079 C.ar      1 <0>        -0.0969
     18 C15        -3.7383    4.9974    5.2720 C.ar      1 <0>        -0.0473
     19 C16        -2.7251    5.8039    4.7578 C.ar      1 <0>        -0.1081
     20 C17        -2.8573    7.1774    4.7887 C.ar      1 <0>        -0.1164
     21 C18        -3.9927    7.7535    5.3293 C.ar      1 <0>        -0.1163
     22 C19        -5.0014    6.9576    5.8416 C.ar      1 <0>        -0.1172
     23 C20        -4.8824    5.5829    5.8102 C.ar      1 <0>        -0.1082
     24 C21         0.0424    1.1332    4.7611 C.ar      1 <0>         0.4361
     25 C22         0.5152    0.1810    5.6652 C.ar      1 <0>        -0.2620
     26 C23         1.7435    0.3916    6.2624 C.ar      1 <0>         0.2044
     27 N2          2.4314    1.4830    5.9618 N.ar      1 <0>        -0.5477
     28 C24         1.9576    2.3702    5.0994 C.ar      1 <0>         0.5814
     29 N3          0.7871    2.2022    4.5021 N.ar      1 <0>        -0.5637
     30 N4          2.7066    3.4989    4.8117 N.pl3     1 <0>        -0.6305
     31 C25         3.9168    3.7256    5.4801 C.ar      1 <0>         0.0952
     32 C26         4.7386    2.6561    5.8101 C.ar      1 <0>        -0.0579
     33 C27         5.9316    2.8795    6.4685 C.ar      1 <0>        -0.1825
     34 C28         6.3094    4.1739    6.8007 C.ar      1 <0>         0.2107
     35 C29         5.4875    5.2435    6.4706 C.ar      1 <0>        -0.1816
     36 C30         4.2970    5.0204    5.8075 C.ar      1 <0>        -0.0907
     37 N5          7.5184    4.4004    7.4684 N.pl3     1 <0>        -0.6318
     38 C31         7.8713    5.7422    7.9565 C.3       1 <0>         0.1267
     39 C32         8.2707    5.6340    9.4319 C.3       1 <0>         0.0384
     40 N6          9.3262    4.6227    9.5773 N.3       1 <0>        -0.5426
     41 C33         8.8456    3.2908    9.1861 C.3       1 <0>         0.0380
     42 C34         8.4669    3.3017    7.7060 C.3       1 <0>         0.1259
     43 C35         9.8576    4.6094   10.9467 C.3       1 <0>         0.0243
     44 C36        -0.4978   -3.0484    2.7248 C.3       1 <0>        -0.1120
     45 H1          0.9697    1.3576   -0.0935 H         1 <0>         0.0773
     46 H2         -0.6013    1.4943   -0.9191 H         1 <0>         0.0735
     47 H3         -0.5174    1.5917    0.8562 H         1 <0>         0.0603
     48 H4         -0.3783   -0.6405   -2.0571 H         1 <0>         0.1322
     49 H5         -0.6682   -3.0803   -1.9110 H         1 <0>         0.1312
     50 H6         -0.7239   -4.1873    0.2867 H         1 <0>         0.1325
     51 H7         -3.2603   -0.3169    5.1648 H         1 <0>         0.1291
     52 H8         -5.2789    0.7162    6.1152 H         1 <0>         0.1360
     53 H9         -5.5065    3.1643    6.1682 H         1 <0>         0.1328
     54 H10        -1.6636    3.5563    4.3164 H         1 <0>         0.1357
     55 H11        -1.8379    5.3551    4.3362 H         1 <0>         0.1236
     56 H12        -2.0726    7.8035    4.3904 H         1 <0>         0.1247
     57 H13        -4.0919    8.8287    5.3518 H         1 <0>         0.1239
     58 H14        -5.8855    7.4126    6.2631 H         1 <0>         0.1258
     59 H15        -5.6725    4.9623    6.2064 H         1 <0>         0.1267
     60 H16        -0.0658   -0.7003    5.8932 H         1 <0>         0.1491
     61 H17         2.1381   -0.3256    6.9668 H         1 <0>         0.1789
     62 H18         2.3934    4.1324    4.1473 H         1 <0>         0.4213
     63 H19         4.4446    1.6494    5.5520 H         1 <0>         0.1392
     64 H20         6.5706    2.0476    6.7254 H         1 <0>         0.1246
     65 H21         5.7811    6.2501    6.7292 H         1 <0>         0.1254
     66 H22         3.6599    5.8525    5.5469 H         1 <0>         0.1229
     67 H23         8.7082    6.1338    7.3783 H         1 <0>         0.0696
     68 H24         7.0120    6.4056    7.8575 H         1 <0>         0.0859
     69 H25         8.6406    6.5984    9.7803 H         1 <0>         0.0855
     70 H26         7.4030    5.3416   10.0232 H         1 <0>         0.0383
     71 H27         9.6323    2.5558    9.3562 H         1 <0>         0.0859
     72 H28         7.9698    3.0311    9.7808 H         1 <0>         0.0382
     73 H29         8.0013    2.3524    7.4415 H         1 <0>         0.0872
     74 H30         9.3622    3.4542    7.1033 H         1 <0>         0.0695
     75 H31         9.0540    4.3788   11.6461 H         1 <0>         0.0257
     76 H32        10.6373    3.8518   11.0266 H         1 <0>         0.0703
     77 H33        10.2759    5.5876   11.1836 H         1 <0>         0.0705
     78 H34         0.5135   -3.3357    3.0125 H         1 <0>         0.0784
     79 H35        -0.9059   -2.3627    3.4674 H         1 <0>         0.0588
     80 H36        -1.1257   -3.9375    2.6674 H         1 <0>         0.0743
@<TRIPOS>BOND
     1    1    2 1
     2    1   45 1
     3    1   46 1
     4    1   47 1
     5    2    7 ar
     6    2    3 ar
     7    3    4 ar
     8    3   48 1
     9    4    5 ar
    10    4   49 1
    11    5    6 ar
    12    5   50 1
    13    6    7 ar
    14    6   44 1
    15    7    8 1
    16    8    9 1
    17    9   10 2
    18    9   11 am
    19   11   12 1
    20   11   24 1
    21   12   17 ar
    22   12   13 ar
    23   13   14 ar
    24   13   51 1
    25   14   15 ar
    26   14   52 1
    27   15   16 ar
    28   15   53 1
    29   16   17 ar
    30   16   18 1
    31   17   54 1
    32   18   23 ar
    33   18   19 ar
    34   19   20 ar
    35   19   55 1
    36   20   21 ar
    37   20   56 1
    38   21   22 ar
    39   21   57 1
    40   22   23 ar
    41   22   58 1
    42   23   59 1
    43   24   29 ar
    44   24   25 ar
    45   25   26 ar
    46   25   60 1
    47   26   27 ar
    48   26   61 1
    49   27   28 ar
    50   28   29 ar
    51   28   30 1
    52   30   31 1
    53   30   62 1
    54   31   36 ar
    55   31   32 ar
    56   32   33 ar
    57   32   63 1
    58   33   34 ar
    59   33   64 1
    60   34   35 ar
    61   34   37 1
    62   35   36 ar
    63   35   65 1
    64   36   66 1
    65   37   42 1
    66   37   38 1
    67   38   39 1
    68   38   67 1
    69   38   68 1
    70   39   40 1
    71   39   69 1
    72   39   70 1
    73   40   41 1
    74   40   43 1
    75   41   42 1
    76   41   71 1
    77   41   72 1
    78   42   73 1
    79   42   74 1
    80   43   75 1
    81   43   76 1
    82   43   77 1
    83   44   78 1
    84   44   79 1
    85   44   80 1
@<TRIPOS>MOLECULE
CHEMBL296534
   47    51     0     0     0
SMALL
USER_CHARGES

@<TRIPOS>ATOM
      1 C1          3.3370    1.3633    3.5653 C.ar      1 <0>        -0.1520
      2 C2          3.4192   -0.0168    3.5450 C.ar      1 <0>        -0.0821
      3 C3          3.5025   -0.6873    2.3401 C.ar      1 <0>        -0.1945
      4 C4          3.5032    0.0255    1.1495 C.ar      1 <0>         0.1206
      5 C5          3.4202    1.4104    1.1728 C.ar      1 <0>        -0.1459
      6 C6          3.3375    2.0760    2.3804 C.ar      1 <0>        -0.0821
      7 O1          3.5855   -0.6316   -0.0370 O.3       1 <0>        -0.2597
      8 C7          3.6573   -1.9885   -0.0113 C.ar      1 <0>         0.0834
      9 C8          2.4934   -2.7445   -0.0465 C.ar      1 <0>        -0.1153
     10 C9          2.5628   -4.1217   -0.0205 C.ar      1 <0>        -0.0941
     11 C10         3.8037   -4.7546    0.0407 C.ar      1 <0>        -0.0060
     12 C11         4.9707   -3.9925    0.0755 C.ar      1 <0>        -0.1127
     13 C12         4.8946   -2.6157    0.0443 C.ar      1 <0>        -0.1162
     14 C13         3.8820   -6.2349    0.0693 C.2       1 <0>        -0.0971
     15 C14         3.1900   -7.0680    0.8846 C.2       1 <0>         0.0587
     16 N1          3.5310   -8.3656    0.6127 N.pl3     1 <0>        -0.4517
     17 C15         4.4590   -8.4116   -0.3923 C.ar      1 <0>         0.3524
     18 C16         4.7196   -7.0869   -0.7844 C.ar      1 <0>        -0.2529
     19 C17         5.6424   -6.8580   -1.8136 C.ar      1 <0>         0.4953
     20 N2          6.2315   -7.9083   -2.3789 N.ar      1 <0>        -0.5989
     21 C18         5.9559   -9.1375   -1.9825 C.ar      1 <0>         0.3672
     22 N3          5.1023   -9.3977   -1.0159 N.ar      1 <0>        -0.5703
     23 N4          5.9333   -5.5718   -2.2318 N.pl3     1 <0>        -0.8301
     24 C19         2.9816   -9.5372    1.2994 C.3       1 <0>         0.1160
     25 C20         1.4392   -9.5532    1.1900 C.3       1 <0>        -0.0087
     26 N5          1.0161  -10.0302    2.5345 N.3       1 <0>        -0.4739
     27 O2          1.9737   -9.3878    3.4580 O.3       1 <0>        -0.2399
     28 C21         3.2593   -9.4531    2.8133 C.3       1 <0>         0.0390
     29 H1          3.2678    1.8854    4.5083 H         1 <0>         0.1258
     30 H2          3.4186   -0.5710    4.4719 H         1 <0>         0.1260
     31 H3          3.5673   -1.7652    2.3248 H         1 <0>         0.1274
     32 H4          3.4209    1.9675    0.2475 H         1 <0>         0.1327
     33 H5          3.2732    3.1539    2.3991 H         1 <0>         0.1319
     34 H6          1.5325   -2.2536   -0.0939 H         1 <0>         0.1357
     35 H7          1.6570   -4.7092   -0.0472 H         1 <0>         0.1335
     36 H8          5.9333   -4.4797    0.1229 H         1 <0>         0.1342
     37 H9          5.7983   -2.0248    0.0675 H         1 <0>         0.1364
     38 H10         2.4781   -6.7556    1.6344 H         1 <0>         0.1780
     39 H11         6.4563   -9.9625   -2.4676 H         1 <0>         0.2020
     40 H12         5.4964   -4.8146   -1.8115 H         1 <0>         0.4115
     41 H13         6.5741   -5.4271   -2.9455 H         1 <0>         0.4089
     42 H14         3.4039  -10.4528    0.8853 H         1 <0>         0.1332
     43 H15         1.0556   -8.5512    0.9978 H         1 <0>         0.0694
     44 H16         1.1145  -10.2472    0.4147 H         1 <0>         0.1206
     45 H17         0.0701   -9.7446    2.7384 H         1 <0>         0.3611
     46 H18         3.7995  -10.3400    3.1445 H         1 <0>         0.0869
     47 H19         3.8369   -8.5566    3.0386 H         1 <0>         0.0964
@<TRIPOS>BOND
     1    1    6 ar
     2    1    2 ar
     3    1   29 1
     4    2    3 ar
     5    2   30 1
     6    3    4 ar
     7    3   31 1
     8    4    5 ar
     9    4    7 1
    10    5    6 ar
    11    5   32 1
    12    6   33 1
    13    7    8 1
    14    8   13 ar
    15    8    9 ar
    16    9   10 ar
    17    9   34 1
    18   10   11 ar
    19   10   35 1
    20   11   12 ar
    21   11   14 1
    22   12   13 ar
    23   12   36 1
    24   13   37 1
    25   14   18 1
    26   14   15 2
    27   15   16 1
    28   15   38 1
    29   16   17 1
    30   16   24 1
    31   17   22 ar
    32   17   18 ar
    33   18   19 ar
    34   19   20 ar
    35   19   23 1
    36   20   21 ar
    37   21   22 ar
    38   21   39 1
    39   23   40 1
    40   23   41 1
    41   24   28 1
    42   24   25 1
    43   24   42 1
    44   25   26 1
    45   25   43 1
    46   25   44 1
    47   26   27 1
    48   26   45 1
    49   27   28 1
    50   28   46 1
    51   28   47 1
@<TRIPOS>MOLECULE
CHEMBL296534__1
   47    51     0     0     0
SMALL
USER_CHARGES

@<TRIPOS>ATOM
      1 C1          3.3370    1.3633    3.5653 C.ar      1 <0>        -0.1526
      2 C2          3.4192   -0.0168    3.5450 C.ar      1 <0>        -0.0821
      3 C3          3.5025   -0.6873    2.3401 C.ar      1 <0>        -0.1941
      4 C4          3.5032    0.0255    1.1495 C.ar      1 <0>         0.1210
      5 C5          3.4202    1.4104    1.1728 C.ar      1 <0>        -0.1464
      6 C6          3.3375    2.0760    2.3804 C.ar      1 <0>        -0.0824
      7 O1          3.5855   -0.6316   -0.0370 O.3       1 <0>        -0.2597
      8 C7          3.6573   -1.9885   -0.0113 C.ar      1 <0>         0.0815
      9 C8          2.4934   -2.7445   -0.0465 C.ar      1 <0>        -0.1149
     10 C9          2.5628   -4.1217   -0.0205 C.ar      1 <0>        -0.0935
     11 C10         3.8037   -4.7546    0.0407 C.ar      1 <0>        -0.0027
     12 C11         4.9707   -3.9925    0.0755 C.ar      1 <0>        -0.1141
     13 C12         4.8946   -2.6157    0.0443 C.ar      1 <0>        -0.1168
     14 C13         3.8820   -6.2349    0.0693 C.2       1 <0>        -0.1081
     15 C14         3.1900   -7.0680    0.8846 C.2       1 <0>         0.0756
     16 N1          3.5310   -8.3656    0.6127 N.pl3     1 <0>        -0.4491
     17 C15         4.4590   -8.4116   -0.3923 C.ar      1 <0>         0.3471
     18 C16         4.7196   -7.0869   -0.7844 C.ar      1 <0>        -0.2501
     19 C17         5.6424   -6.8580   -1.8136 C.ar      1 <0>         0.4937
     20 N2          6.2315   -7.9083   -2.3789 N.ar      1 <0>        -0.5994
     21 C18         5.9559   -9.1375   -1.9825 C.ar      1 <0>         0.3644
     22 N3          5.1023   -9.3977   -1.0159 N.ar      1 <0>        -0.5716
     23 N4          5.9333   -5.5718   -2.2318 N.pl3     1 <0>        -0.8306
     24 C19         2.9816   -9.5372    1.2994 C.3       1 <0>         0.1162
     25 C20         3.2149   -9.4281    2.8242 C.3       1 <0>        -0.0101
     26 N5          1.9253   -8.8743    3.3184 N.3       1 <0>        -0.4800
     27 O2          0.9072   -9.5401    2.4802 O.3       1 <0>        -0.2376
     28 C21         1.4483   -9.5807    1.1468 C.3       1 <0>         0.0390
     29 H1          3.2678    1.8854    4.5083 H         1 <0>         0.1254
     30 H2          3.4186   -0.5710    4.4719 H         1 <0>         0.1259
     31 H3          3.5673   -1.7652    2.3248 H         1 <0>         0.1280
     32 H4          3.4209    1.9675    0.2475 H         1 <0>         0.1324
     33 H5          3.2732    3.1539    2.3991 H         1 <0>         0.1315
     34 H6          1.5325   -2.2536   -0.0939 H         1 <0>         0.1355
     35 H7          1.6570   -4.7092   -0.0472 H         1 <0>         0.1349
     36 H8          5.9333   -4.4797    0.1229 H         1 <0>         0.1333
     37 H9          5.7983   -2.0248    0.0675 H         1 <0>         0.1354
     38 H10         2.4781   -6.7556    1.6344 H         1 <0>         0.1856
     39 H11         6.4563   -9.9625   -2.4676 H         1 <0>         0.2007
     40 H12         5.4964   -4.8146   -1.8115 H         1 <0>         0.4116
     41 H13         6.5741   -5.4271   -2.9455 H         1 <0>         0.4083
     42 H14         3.4290  -10.4510    0.9084 H         1 <0>         0.1294
     43 H15         3.4041  -10.4105    3.2568 H         1 <0>         0.0799
     44 H16         4.0364   -8.7452    3.0409 H         1 <0>         0.1159
     45 H17         1.7887   -9.0916    4.2942 H         1 <0>         0.3608
     46 H18         1.1043   -8.7177    0.5768 H         1 <0>         0.0789
     47 H19         1.1478  -10.5026    0.6489 H         1 <0>         0.1041
@<TRIPOS>BOND
     1    1    6 ar
     2    1    2 ar
     3    1   29 1
     4    2    3 ar
     5    2   30 1
     6    3    4 ar
     7    3   31 1
     8    4    5 ar
     9    4    7 1
    10    5    6 ar
    11    5   32 1
    12    6   33 1
    13    7    8 1
    14    8   13 ar
    15    8    9 ar
    16    9   10 ar
    17    9   34 1
    18   10   11 ar
    19   10   35 1
    20   11   12 ar
    21   11   14 1
    22   12   13 ar
    23   12   36 1
    24   13   37 1
    25   14   18 1
    26   14   15 2
    27   15   16 1
    28   15   38 1
    29   16   17 1
    30   16   24 1
    31   17   22 ar
    32   17   18 ar
    33   18   19 ar
    34   19   20 ar
    35   19   23 1
    36   20   21 ar
    37   21   22 ar
    38   21   39 1
    39   23   40 1
    40   23   41 1
    41   24   28 1
    42   24   25 1
    43   24   42 1
    44   25   26 1
    45   25   43 1
    46   25   44 1
    47   26   27 1
    48   26   45 1
    49   27   28 1
    50   28   46 1
    51   28   47 1
@<TRIPOS>MOLECULE
CHEMBL270692
   64    68     0     0     0
SMALL
USER_CHARGES

@<TRIPOS>ATOM
      1 C1          3.5882    0.2297    1.3296 C.3       1 <0>        -0.1108
      2 C2          2.5339   -0.6412    0.6964 C.ar      1 <0>        -0.0773
      3 C3          2.8157   -1.3348   -0.4641 C.ar      1 <0>        -0.1200
      4 C4          1.8486   -2.1338   -1.0461 C.ar      1 <0>        -0.1048
      5 C5          0.5968   -2.2416   -0.4684 C.ar      1 <0>        -0.1186
      6 C6          0.3086   -1.5511    0.6924 C.ar      1 <0>        -0.0577
      7 C7          1.2794   -0.7518    1.2825 C.ar      1 <0>         0.1435
      8 N1          0.9927   -0.0560    2.4607 N.pl3     1 <0>        -0.6396
      9 C8          0.8397   -0.7426    3.6473 C.2       1 <0>         0.5719
     10 N2          0.8456   -2.0458    3.7690 N.2       1 <0>        -0.5141
     11 C9          0.6701   -2.3858    5.0735 C.ar      1 <0>         0.0934
     12 C10         0.5983   -3.6094    5.7439 C.ar      1 <0>        -0.0861
     13 C11         0.4090   -3.6321    7.1077 C.ar      1 <0>        -0.1042
     14 C12         0.2892   -2.4490    7.8213 C.ar      1 <0>        -0.1213
     15 C13         0.3580   -1.2324    7.1735 C.ar      1 <0>        -0.0749
     16 C14         0.5481   -1.1911    5.8014 C.ar      1 <0>         0.0384
     17 N3          0.6647   -0.1623    4.8766 N.pl3     1 <0>        -0.4403
     18 C15         0.6105    1.1991    5.1460 C.ar      1 <0>         0.6348
     19 N4          0.4409    1.6243    6.3946 N.ar      1 <0>        -0.5968
     20 C16         0.3896    2.9195    6.6527 C.ar      1 <0>         0.4137
     21 N5          0.5061    3.7971    5.6717 N.ar      1 <0>        -0.5986
     22 C17         0.6761    3.3788    4.4198 C.ar      1 <0>         0.6338
     23 N6          0.7335    2.0768    4.1584 N.ar      1 <0>        -0.6354
     24 N7          0.7978    4.2960    3.3946 N.pl3     1 <0>        -0.6171
     25 C18         0.8568    5.6650    3.6833 C.ar      1 <0>         0.2278
     26 C19         1.4589    6.1015    4.8555 C.ar      1 <0>        -0.2245
     27 C20         1.5177    7.4564    5.1420 C.ar      1 <0>         0.1704
     28 C21         0.9741    8.3780    4.2552 C.ar      1 <0>         0.0186
     29 C22         0.3718    7.9402    3.0817 C.ar      1 <0>         0.1717
     30 C23         0.3182    6.5853    2.7944 C.ar      1 <0>        -0.2565
     31 O1         -0.1605    8.8412    2.2132 O.3       1 <0>        -0.2972
     32 C24        -0.7637    8.3207    1.0270 C.3       1 <0>         0.0232
     33 O2          1.0310    9.7092    4.5361 O.3       1 <0>        -0.3101
     34 C25         2.1766   10.4228    4.0668 C.3       1 <0>         0.0344
     35 O3          2.1068    7.8837    6.2908 O.3       1 <0>        -0.2969
     36 C26         2.6441    6.8814    7.1561 C.3       1 <0>         0.0251
     37 C27        -1.0560   -1.6689    1.3210 C.3       1 <0>        -0.1105
     38 H1          4.1715   -0.3612    2.0358 H         1 <0>         0.0699
     39 H2          4.2462    0.6245    0.5556 H         1 <0>         0.0696
     40 H3          3.1094    1.0557    1.8555 H         1 <0>         0.0605
     41 H4          3.7923   -1.2527   -0.9179 H         1 <0>         0.1261
     42 H5          2.0714   -2.6745   -1.9541 H         1 <0>         0.1259
     43 H6         -0.1563   -2.8662   -0.9257 H         1 <0>         0.1264
     44 H7          0.9015    0.9096    2.4437 H         1 <0>         0.4280
     45 H8          0.6905   -4.5345    5.1942 H         1 <0>         0.1327
     46 H9          0.3532   -4.5783    7.6254 H         1 <0>         0.1323
     47 H10         0.1407   -2.4800    8.8906 H         1 <0>         0.1330
     48 H11         0.2639   -0.3144    7.7347 H         1 <0>         0.1402
     49 H12         0.2518    3.2615    7.6679 H         1 <0>         0.2227
     50 H13         0.8425    3.9920    2.4746 H         1 <0>         0.4292
     51 H14         1.8814    5.3852    5.5446 H         1 <0>         0.1504
     52 H15        -0.1461    6.2452    1.8805 H         1 <0>         0.1399
     53 H16        -1.1475    9.1432    0.4235 H         1 <0>         0.1055
     54 H17        -0.0202    7.7662    0.4545 H         1 <0>         0.0578
     55 H18        -1.5836    7.6556    1.2981 H         1 <0>         0.0586
     56 H19         3.0773    9.9923    4.5045 H         1 <0>         0.0443
     57 H20         2.2301   10.3502    2.9806 H         1 <0>         0.0441
     58 H21         2.0964   11.4703    4.3574 H         1 <0>         0.0933
     59 H22         3.0834    7.3562    8.0334 H         1 <0>         0.1043
     60 H23         1.8474    6.2065    7.4690 H         1 <0>         0.0626
     61 H24         3.4112    6.3169    6.6260 H         1 <0>         0.0534
     62 H25        -1.0708   -2.5214    2.0001 H         1 <0>         0.0804
     63 H26        -1.2800   -0.7581    1.8763 H         1 <0>         0.0558
     64 H27        -1.8041   -1.8123    0.5413 H         1 <0>         0.0658
@<TRIPOS>BOND
     1    1    2 1
     2    1   38 1
     3    1   39 1
     4    1   40 1
     5    2    7 ar
     6    2    3 ar
     7    3    4 ar
     8    3   41 1
     9    4    5 ar
    10    4   42 1
    11    5    6 ar
    12    5   43 1
    13    6    7 ar
    14    6   37 1
    15    7    8 1
    16    8    9 1
    17    8   44 1
    18    9   17 1
    19    9   10 2
    20   10   11 1
    21   11   16 ar
    22   11   12 ar
    23   12   13 ar
    24   12   45 1
    25   13   14 ar
    26   13   46 1
    27   14   15 ar
    28   14   47 1
    29   15   16 ar
    30   15   48 1
    31   16   17 1
    32   17   18 1
    33   18   23 ar
    34   18   19 ar
    35   19   20 ar
    36   20   21 ar
    37   20   49 1
    38   21   22 ar
    39   22   23 ar
    40   22   24 1
    41   24   25 1
    42   24   50 1
    43   25   30 ar
    44   25   26 ar
    45   26   27 ar
    46   26   51 1
    47   27   28 ar
    48   27   35 1
    49   28   29 ar
    50   28   33 1
    51   29   30 ar
    52   29   31 1
    53   30   52 1
    54   31   32 1
    55   32   53 1
    56   32   54 1
    57   32   55 1
    58   33   34 1
    59   34   56 1
    60   34   57 1
    61   34   58 1
    62   35   36 1
    63   36   59 1
    64   36   60 1
    65   36   61 1
    66   37   62 1
    67   37   63 1
    68   37   64 1
@<TRIPOS>MOLECULE
CHEMBL270692__1
   65    69     0     0     0
SMALL
USER_CHARGES

@<TRIPOS>ATOM
      1 C1          3.4355   -2.0613    2.5307 C.3       1 <0>        -0.1275
      2 C2          2.3827   -2.0977    1.4530 C.ar      1 <0>        -0.0545
      3 C3          2.6909   -2.5955    0.2022 C.ar      1 <0>        -0.1139
      4 C4          1.7256   -2.6288   -0.7875 C.ar      1 <0>        -0.0711
      5 C5          0.4489   -2.1646   -0.5284 C.ar      1 <0>        -0.1138
      6 C6          0.1340   -1.6660    0.7204 C.ar      1 <0>        -0.0548
      7 C7          1.0998   -1.6359    1.7183 C.ar      1 <0>         0.0466
      8 N1          0.7828   -1.1372    2.9852 N.pl3     1 <0>        -0.5921
      9 C8          0.3635   -1.9964    3.9797 C.cat     1 <0>         0.6753
     10 N2          0.1344   -3.2754    3.8220 N.pl3     1 <0>        -0.5261
     11 C9         -0.2639   -3.8193    5.0026 C.ar      1 <0>         0.0645
     12 C10        -0.6270   -5.1120    5.3884 C.ar      1 <0>        -0.0780
     13 C11        -0.9931   -5.3591    6.6927 C.ar      1 <0>        -0.0758
     14 C12        -1.0043   -4.3341    7.6267 C.ar      1 <0>        -0.0767
     15 C13        -0.6483   -3.0519    7.2612 C.ar      1 <0>        -0.0633
     16 C14        -0.2771   -2.7854    5.9528 C.ar      1 <0>         0.0885
     17 N3          0.1301   -1.6400    5.2824 N.pl3     1 <0>        -0.4084
     18 C15         0.2709   -0.3707    5.8283 C.ar      1 <0>         0.6235
     19 N4          0.0142   -0.1684    7.1174 N.ar      1 <0>        -0.5854
     20 C16         0.1481    1.0388    7.6385 C.ar      1 <0>         0.4290
     21 N5          0.5371    2.0495    6.8813 N.ar      1 <0>        -0.5752
     22 C17         0.7957    1.8543    5.5905 C.ar      1 <0>         0.6429
     23 N6          0.6670    0.6401    5.0653 N.ar      1 <0>        -0.6399
     24 N7          1.2022    2.9106    4.7992 N.pl3     1 <0>        -0.6045
     25 C18         1.4569    4.1606    5.3767 C.ar      1 <0>         0.2096
     26 C19         1.9691    4.2383    6.6646 C.ar      1 <0>        -0.2228
     27 C20         2.2215    5.4752    7.2370 C.ar      1 <0>         0.1711
     28 C21         1.9622    6.6377    6.5210 C.ar      1 <0>         0.0295
     29 C22         1.4499    6.5590    5.2315 C.ar      1 <0>         0.1732
     30 C23         1.2025    5.3212    4.6588 C.ar      1 <0>        -0.2502
     31 O1          1.1957    7.6960    4.5300 O.3       1 <0>        -0.2937
     32 C24         0.6699    7.5403    3.2105 C.3       1 <0>         0.0225
     33 O2          2.2095    7.8533    7.0827 O.3       1 <0>        -0.3096
     34 C25         3.5110    8.4080    6.8820 C.3       1 <0>         0.0343
     35 O3          2.7224    5.5512    8.4990 O.3       1 <0>        -0.2933
     36 C26         2.9645    4.3164    9.1764 C.3       1 <0>         0.0251
     37 C27        -1.2573   -1.1599    1.0016 C.3       1 <0>        -0.1268
     38 H1          3.4125   -2.9949    3.0927 H         1 <0>         0.0756
     39 H2          4.4176   -1.9355    2.0751 H         1 <0>         0.0877
     40 H3          3.2376   -1.2271    3.2038 H         1 <0>         0.0653
     41 H4          3.6869   -2.9588   -0.0034 H         1 <0>         0.1419
     42 H5          1.9693   -3.0180   -1.7650 H         1 <0>         0.1420
     43 H6         -0.3025   -2.1918   -1.3036 H         1 <0>         0.1423
     44 H7          0.8577   -0.1869    3.1650 H         1 <0>         0.4511
     45 H8         -0.6208   -5.9148    4.6659 H         1 <0>         0.1537
     46 H9         -1.2741   -6.3586    6.9903 H         1 <0>         0.1572
     47 H10        -1.2937   -4.5406    8.6465 H         1 <0>         0.1576
     48 H11        -0.6589   -2.2578    7.9932 H         1 <0>         0.1651
     49 H12        -0.0612    1.1997    8.6858 H         1 <0>         0.2359
     50 H13         1.3112    2.7866    3.8433 H         1 <0>         0.4312
     51 H14         2.1706    3.3348    7.2209 H         1 <0>         0.1483
     52 H15         0.8083    5.2598    3.6552 H         1 <0>         0.1413
     53 H16         1.3749    6.9729    2.6030 H         1 <0>         0.0580
     54 H17        -0.2797    7.0073    3.2583 H         1 <0>         0.0588
     55 H18         0.5133    8.5221    2.7636 H         1 <0>         0.1088
     56 H19         3.5745    9.3754    7.3803 H         1 <0>         0.0973
     57 H20         4.2609    7.7351    7.2980 H         1 <0>         0.0458
     58 H21         3.6905    8.5367    5.8146 H         1 <0>         0.0459
     59 H22         3.3622    4.5193   10.1707 H         1 <0>         0.1075
     60 H23         2.0306    3.7614    9.2648 H         1 <0>         0.0612
     61 H24         3.6854    3.7266    8.6101 H         1 <0>         0.0530
     62 H25        -1.8493   -1.9562    1.4529 H         1 <0>         0.0751
     63 H26        -1.2046   -0.3136    1.6865 H         1 <0>         0.0671
     64 H27        -1.7245   -0.8439    0.0689 H         1 <0>         0.0871
     65 H28         0.2338   -3.7617    2.9886 H         1 <0>         0.4600
@<TRIPOS>BOND
     1    1    2 1
     2    1   38 1
     3    1   39 1
     4    1   40 1
     5    2    7 ar
     6    2    3 ar
     7    3    4 ar
     8    3   41 1
     9    4    5 ar
    10    4   42 1
    11    5    6 ar
    12    5   43 1
    13    6    7 ar
    14    6   37 1
    15    7    8 1
    16    8    9 1
    17    8   44 1
    18    9   17 1
    19    9   10 2
    20   10   11 1
    21   10   65 1
    22   11   16 ar
    23   11   12 ar
    24   12   13 ar
    25   12   45 1
    26   13   14 ar
    27   13   46 1
    28   14   15 ar
    29   14   47 1
    30   15   16 ar
    31   15   48 1
    32   16   17 1
    33   17   18 1
    34   18   23 ar
    35   18   19 ar
    36   19   20 ar
    37   20   21 ar
    38   20   49 1
    39   21   22 ar
    40   22   23 ar
    41   22   24 1
    42   24   25 1
    43   24   50 1
    44   25   30 ar
    45   25   26 ar
    46   26   27 ar
    47   26   51 1
    48   27   28 ar
    49   27   35 1
    50   28   29 ar
    51   28   33 1
    52   29   30 ar
    53   29   31 1
    54   30   52 1
    55   31   32 1
    56   32   53 1
    57   32   54 1
    58   32   55 1
    59   33   34 1
    60   34   56 1
    61   34   57 1
    62   34   58 1
    63   35   36 1
    64   36   59 1
    65   36   60 1
    66   36   61 1
    67   37   62 1
    68   37   63 1
    69   37   64 1
@<TRIPOS>MOLECULE
CHEMBL1085512
   69    74     0     0     0
SMALL
USER_CHARGES

@<TRIPOS>ATOM
      1 C1          0.1268    1.4998    0.0745 C.3       1 <0>        -0.0468
      2 N1          0.1399    0.0309    0.0638 N.4       1 <0>        -0.3837
      3 C2         -1.2407   -0.4691    0.0544 C.3       1 <0>        -0.0232
      4 C3         -1.2290   -1.9960   -0.0725 C.3       1 <0>         0.0995
      5 N2         -0.3910   -2.5470    1.0038 N.pl3     1 <0>        -0.6461
      6 C4          0.9560   -1.9858    1.1898 C.3       1 <0>         0.1001
      7 C5          0.8412   -0.4593    1.2571 C.3       1 <0>        -0.0229
      8 C6         -0.8617   -3.5745    1.8268 C.ar      1 <0>         0.1874
      9 C7         -2.1735   -4.0162    1.7034 C.ar      1 <0>        -0.1819
     10 C8         -2.6404   -5.0295    2.5139 C.ar      1 <0>        -0.0669
     11 C9         -1.7946   -5.6112    3.4582 C.ar      1 <0>        -0.0124
     12 C10        -0.4784   -5.1659    3.5799 C.ar      1 <0>        -0.0503
     13 C11        -0.0151   -4.1562    2.7629 C.ar      1 <0>        -0.1799
     14 C12        -2.2936   -6.7000    4.3309 C.2       1 <0>        -0.2245
     15 C13        -3.4761   -6.6877    5.0799 C.2       1 <0>         0.1198
     16 N3         -3.5805   -7.8238    5.7247 N.2       1 <0>        -0.3227
     17 N4         -2.4739   -8.6262    5.4263 N.pl3     1 <0>        -0.3436
     18 C14        -1.6730   -7.9349    4.5552 C.2       1 <0>         0.3196
     19 N5         -0.5369   -8.4683    4.0918 N.2       1 <0>        -0.5102
     20 C15        -0.1497   -9.6714    4.4505 C.2       1 <0>         0.2395
     21 C16        -0.9315  -10.4299    5.3387 C.2       1 <0>        -0.2556
     22 C17        -2.1105   -9.8819    5.8337 C.2       1 <0>         0.5055
     23 N6         -2.9040  -10.5942    6.7029 N.pl3     1 <0>        -0.8205
     24 C18        -0.5022  -11.7888    5.7483 C.ar      1 <0>        -0.0411
     25 C19        -0.1760  -12.0465    7.0792 C.ar      1 <0>        -0.0920
     26 C20         0.2230  -13.3111    7.4576 C.ar      1 <0>        -0.1132
     27 C21         0.3001  -14.3280    6.5139 C.ar      1 <0>         0.1673
     28 C22        -0.0245  -14.0738    5.1870 C.ar      1 <0>        -0.1330
     29 C23        -0.4296  -12.8125    4.8045 C.ar      1 <0>        -0.0772
     30 N7          0.7058  -15.6107    6.9005 N.am      1 <0>        -0.6492
     31 C24         0.3676  -16.0869    8.1151 C.2       1 <0>         0.6472
     32 O1         -0.3719  -15.4454    8.8350 O.2       1 <0>        -0.5342
     33 O2          0.8493  -17.2740    8.5311 O.3       1 <0>        -0.3008
     34 C25         0.5669  -17.6677    9.8011 C.ar      1 <0>         0.0945
     35 C26         1.5444  -17.5999   10.7832 C.ar      1 <0>        -0.1144
     36 C27         1.2547  -18.0001   12.0733 C.ar      1 <0>        -0.1056
     37 C28        -0.0082  -18.4680   12.3861 C.ar      1 <0>        -0.1099
     38 C29        -0.9840  -18.5370   11.4090 C.ar      1 <0>        -0.1051
     39 C30        -0.7010  -18.1326   10.1187 C.ar      1 <0>        -0.1133
     40 H1          1.1512    1.8723    0.0734 H         1 <0>         0.1246
     41 H2         -0.3936    1.8650   -0.8109 H         1 <0>         0.1245
     42 H3         -0.3869    1.8520    0.9690 H         1 <0>         0.1213
     43 H4         -1.7363   -0.1853    0.9827 H         1 <0>         0.1321
     44 H5         -1.7775   -0.0383   -0.7908 H         1 <0>         0.1397
     45 H6         -2.2451   -2.3792    0.0219 H         1 <0>         0.1269
     46 H7         -0.8157   -2.2800   -1.0403 H         1 <0>         0.0860
     47 H8          1.3845   -2.3621    2.1187 H         1 <0>         0.1266
     48 H9          1.5900   -2.2687    0.3495 H         1 <0>         0.0860
     49 H10         1.8385   -0.0213    1.2982 H         1 <0>         0.1398
     50 H11         0.2826   -0.1758    2.1491 H         1 <0>         0.1321
     51 H12        -2.8281   -3.5652    0.9723 H         1 <0>         0.1214
     52 H13        -3.6601   -5.3721    2.4178 H         1 <0>         0.1263
     53 H14         0.1787   -5.6146    4.3103 H         1 <0>         0.1253
     54 H15         1.0052   -3.8140    2.8537 H         1 <0>         0.1213
     55 H16        -4.1859   -5.8748    5.1202 H         1 <0>         0.1981
     56 H17         0.7718  -10.0789    4.0615 H         1 <0>         0.1794
     57 H18        -3.7300  -10.2076    7.0333 H         1 <0>         0.4185
     58 H19        -2.6376  -11.4831    6.9854 H         1 <0>         0.4273
     59 H20        -0.2354  -11.2564    7.8131 H         1 <0>         0.1280
     60 H21         0.4762  -13.5112    8.4882 H         1 <0>         0.1387
     61 H22         0.0366  -14.8659    4.4554 H         1 <0>         0.1350
     62 H23        -0.6864  -12.6166    3.7739 H         1 <0>         0.1338
     63 H24         1.2304  -16.1567    6.2943 H         1 <0>         0.4217
     64 H25         2.5311  -17.2348   10.5392 H         1 <0>         0.1323
     65 H26         2.0155  -17.9478   12.8380 H         1 <0>         0.1348
     66 H27        -0.2327  -18.7804   13.3952 H         1 <0>         0.1318
     67 H28        -1.9697  -18.9031   11.6557 H         1 <0>         0.1331
     68 H29        -1.4649  -18.1824    9.3569 H         1 <0>         0.1285
     69 H30         0.6183   -0.2939   -0.7631 H         1 <0>         0.4244
@<TRIPOS>BOND
     1    1    2 1
     2    1   40 1
     3    1   41 1
     4    1   42 1
     5    2    7 1
     6    2    3 1
     7    2   69 1
     8    3    4 1
     9    3   43 1
    10    3   44 1
    11    4    5 1
    12    4   45 1
    13    4   46 1
    14    5    6 1
    15    5    8 1
    16    6    7 1
    17    6   47 1
    18    6   48 1
    19    7   49 1
    20    7   50 1
    21    8   13 ar
    22    8    9 ar
    23    9   10 ar
    24    9   51 1
    25   10   11 ar
    26   10   52 1
    27   11   12 ar
    28   11   14 1
    29   12   13 ar
    30   12   53 1
    31   13   54 1
    32   14   18 2
    33   14   15 1
    34   15   16 2
    35   15   55 1
    36   16   17 1
    37   17   22 1
    38   17   18 1
    39   18   19 1
    40   19   20 2
    41   20   21 1
    42   20   56 1
    43   21   22 2
    44   21   24 1
    45   22   23 1
    46   23   57 1
    47   23   58 1
    48   24   29 ar
    49   24   25 ar
    50   25   26 ar
    51   25   59 1
    52   26   27 ar
    53   26   60 1
    54   27   28 ar
    55   27   30 1
    56   28   29 ar
    57   28   61 1
    58   29   62 1
    59   30   31 am
    60   30   63 1
    61   31   32 2
    62   31   33 1
    63   33   34 1
    64   34   39 ar
    65   34   35 ar
    66   35   36 ar
    67   35   64 1
    68   36   37 ar
    69   36   65 1
    70   37   38 ar
    71   37   66 1
    72   38   39 ar
    73   38   67 1
    74   39   68 1
@<TRIPOS>MOLECULE
CHEMBL1085512__1
   68    73     0     0     0
SMALL
USER_CHARGES

@<TRIPOS>ATOM
      1 C1          0.1252    1.5009    0.0813 C.3       1 <0>         0.0244
      2 N1          0.1384    0.0320    0.0703 N.3       1 <0>        -0.5428
      3 C2         -1.2248   -0.5060   -0.0318 C.3       1 <0>         0.0384
      4 C3         -1.1580   -2.0250   -0.2224 C.3       1 <0>         0.1257
      5 N2         -0.3434   -2.5964    0.8607 N.pl3     1 <0>        -0.6324
      6 C4          0.9841   -2.0158    1.1135 C.3       1 <0>         0.1263
      7 C5          0.8330   -0.4972    1.2516 C.3       1 <0>         0.0388
      8 C6         -0.8182   -3.6634    1.6293 C.ar      1 <0>         0.2184
      9 C7         -2.1151   -4.1275    1.4454 C.ar      1 <0>        -0.1989
     10 C8         -2.5860   -5.1799    2.2021 C.ar      1 <0>        -0.0608
     11 C9         -1.7593   -5.7785    3.1527 C.ar      1 <0>        -0.0507
     12 C10        -0.4580   -5.3106    3.3351 C.ar      1 <0>        -0.0443
     13 C11         0.0096   -4.2617    2.5717 C.ar      1 <0>        -0.1971
     14 C12        -2.2626   -6.9092    3.9676 C.2       1 <0>        -0.1957
     15 C13        -3.4693   -6.9495    4.6760 C.2       1 <0>         0.1145
     16 N3         -3.5699   -8.1107    5.2750 N.2       1 <0>        -0.3265
     17 N4         -2.4365   -8.8782    4.9852 N.pl3     1 <0>        -0.3448
     18 C14        -1.6227   -8.1384    4.1676 C.2       1 <0>         0.3068
     19 N5         -0.4603   -8.6303    3.7239 N.2       1 <0>        -0.4997
     20 C15        -0.0586   -9.8376    4.0513 C.2       1 <0>         0.2327
     21 C16        -0.8525  -10.6447    4.8842 C.2       1 <0>        -0.2626
     22 C17        -2.0590  -10.1403    5.3586 C.2       1 <0>         0.5034
     23 N6         -2.8650  -10.9009    6.1739 N.pl3     1 <0>        -0.8250
     24 C18        -0.4070  -12.0086    5.2584 C.ar      1 <0>        -0.0322
     25 C19        -0.1194  -12.3089    6.5893 C.ar      1 <0>        -0.0933
     26 C20         0.2948  -13.5780    6.9345 C.ar      1 <0>        -0.1131
     27 C21         0.4255  -14.5573    5.9575 C.ar      1 <0>         0.1615
     28 C22         0.1395  -14.2607    4.6306 C.ar      1 <0>        -0.1326
     29 C23        -0.2805  -12.9948    4.2808 C.ar      1 <0>        -0.0787
     30 N7          0.8465  -15.8447    6.3107 N.am      1 <0>        -0.6479
     31 C24         0.4790  -16.3727    7.4949 C.2       1 <0>         0.6468
     32 O1         -0.2980  -15.7740    8.2122 O.2       1 <0>        -0.5343
     33 O2          0.9729  -17.5641    7.8835 O.3       1 <0>        -0.3022
     34 C25         0.6574  -18.0105    9.1280 C.ar      1 <0>         0.0965
     35 C26         1.6001  -17.9587   10.1444 C.ar      1 <0>        -0.1147
     36 C27         1.2769  -18.4125   11.4085 C.ar      1 <0>        -0.1060
     37 C28         0.0151  -18.9182   11.6611 C.ar      1 <0>        -0.1113
     38 C29        -0.9261  -18.9713   10.6496 C.ar      1 <0>        -0.1055
     39 C30        -0.6096  -18.5134    9.3853 C.ar      1 <0>        -0.1134
     40 H1          1.1496    1.8734    0.0804 H         1 <0>         0.0703
     41 H2         -0.3950    1.8662   -0.8042 H         1 <0>         0.0699
     42 H3         -0.3887    1.8529    0.9757 H         1 <0>         0.0255
     43 H4         -1.7751   -0.2778    0.8810 H         1 <0>         0.0383
     44 H5         -1.7311   -0.0543   -0.8848 H         1 <0>         0.0849
     45 H6         -2.1637   -2.4434   -0.1840 H         1 <0>         0.0873
     46 H7         -0.6998   -2.2535   -1.1847 H         1 <0>         0.0690
     47 H8          1.3946   -2.4282    2.0353 H         1 <0>         0.0870
     48 H9          1.6481   -2.2434    0.2797 H         1 <0>         0.0689
     49 H10         1.8190   -0.0391    1.3293 H         1 <0>         0.0851
     50 H11         0.2540   -0.2691    2.1465 H         1 <0>         0.0383
     51 H12        -2.7549   -3.6634    0.7095 H         1 <0>         0.1209
     52 H13        -3.5941   -5.5399    2.0590 H         1 <0>         0.1189
     53 H14         0.1843   -5.7723    4.0705 H         1 <0>         0.1180
     54 H15         1.0185   -3.9019    2.7094 H         1 <0>         0.1205
     55 H16        -4.1979   -6.1536    4.7219 H         1 <0>         0.1980
     56 H17         0.8840  -10.2109    3.6792 H         1 <0>         0.1769
     57 H18        -3.7098  -10.5441    6.4900 H         1 <0>         0.4170
     58 H19        -2.5884  -11.7939    6.4327 H         1 <0>         0.4248
     59 H20        -0.2205  -11.5480    7.3490 H         1 <0>         0.1280
     60 H21         0.5180  -13.8110    7.9652 H         1 <0>         0.1372
     61 H22         0.2423  -15.0236    3.8730 H         1 <0>         0.1337
     62 H23        -0.5073  -12.7661    3.2499 H         1 <0>         0.1343
     63 H24         1.4028  -16.3567    5.7030 H         1 <0>         0.4209
     64 H25         2.5860  -17.5641    9.9475 H         1 <0>         0.1324
     65 H26         2.0106  -18.3727   12.2000 H         1 <0>         0.1342
     66 H27        -0.2357  -19.2725   12.6500 H         1 <0>         0.1310
     67 H28        -1.9110  -19.3670   10.8493 H         1 <0>         0.1325
     68 H29        -1.3465  -18.5510    8.5967 H         1 <0>         0.1286
@<TRIPOS>BOND
     1    1    2 1
     2    1   40 1
     3    1   41 1
     4    1   42 1
     5    2    7 1
     6    2    3 1
     7    3    4 1
     8    3   43 1
     9    3   44 1
    10    4    5 1
    11    4   45 1
    12    4   46 1
    13    5    6 1
    14    5    8 1
    15    6    7 1
    16    6   47 1
    17    6   48 1
    18    7   49 1
    19    7   50 1
    20    8   13 ar
    21    8    9 ar
    22    9   10 ar
    23    9   51 1
    24   10   11 ar
    25   10   52 1
    26   11   12 ar
    27   11   14 1
    28   12   13 ar
    29   12   53 1
    30   13   54 1
    31   14   18 2
    32   14   15 1
    33   15   16 2
    34   15   55 1
    35   16   17 1
    36   17   22 1
    37   17   18 1
    38   18   19 1
    39   19   20 2
    40   20   21 1
    41   20   56 1
    42   21   22 2
    43   21   24 1
    44   22   23 1
    45   23   57 1
    46   23   58 1
    47   24   29 ar
    48   24   25 ar
    49   25   26 ar
    50   25   59 1
    51   26   27 ar
    52   26   60 1
    53   27   28 ar
    54   27   30 1
    55   28   29 ar
    56   28   61 1
    57   29   62 1
    58   30   31 am
    59   30   63 1
    60   31   32 2
    61   31   33 1
    62   33   34 1
    63   34   39 ar
    64   34   35 ar
    65   35   36 ar
    66   35   64 1
    67   36   37 ar
    68   36   65 1
    69   37   38 ar
    70   37   66 1
    71   38   39 ar
    72   38   67 1
    73   39   68 1
@<TRIPOS>MOLECULE
CHEMBL1083001
   77    82     0     0     0
SMALL
USER_CHARGES

@<TRIPOS>ATOM
      1 C1          0.2768    1.7855    0.8227 C.3       1 <0>        -0.0468
      2 N1          0.3861    0.3222    0.7542 N.4       1 <0>        -0.3837
      3 C2         -0.9352   -0.2528    0.4717 C.3       1 <0>        -0.0231
      4 C3         -0.8026   -1.7681    0.2866 C.3       1 <0>         0.0995
      5 N2         -0.1388   -2.3267    1.4746 N.pl3     1 <0>        -0.6461
      6 C4          1.1138   -1.7017    1.9270 C.3       1 <0>         0.1002
      7 C5          0.8908   -0.1896    2.0346 C.3       1 <0>        -0.0228
      8 C6         -0.6825   -3.4209    2.1541 C.ar      1 <0>         0.1872
      9 C7         -1.9220   -3.9244    1.7783 C.ar      1 <0>        -0.1817
     10 C8         -2.4609   -5.0033    2.4471 C.ar      1 <0>        -0.0670
     11 C9         -1.7605   -5.5894    3.5013 C.ar      1 <0>        -0.0120
     12 C10        -0.5164   -5.0822    3.8761 C.ar      1 <0>        -0.0505
     13 C11         0.0201   -4.0064    3.2004 C.ar      1 <0>        -0.1798
     14 C12        -2.3373   -6.7486    4.2222 C.2       1 <0>        -0.2253
     15 C13        -3.6318   -6.8394    4.7471 C.2       1 <0>         0.1197
     16 N3         -3.7781   -8.0127    5.3122 N.2       1 <0>        -0.3235
     17 N4         -2.5888   -8.7382    5.1818 N.pl3     1 <0>        -0.3432
     18 C14        -1.6910   -7.9592    4.4999 C.2       1 <0>         0.3198
     19 N5         -0.4601   -8.4057    4.2249 N.2       1 <0>        -0.5103
     20 C15        -0.0686   -9.6042    4.5942 C.2       1 <0>         0.2389
     21 C16        -0.9466  -10.4501    5.2936 C.2       1 <0>        -0.2523
     22 C17        -2.2262   -9.9931    5.5923 C.2       1 <0>         0.5037
     23 N6         -3.1149  -10.7922    6.2736 N.pl3     1 <0>        -0.8212
     24 C18        -0.5130  -11.8042    5.7142 C.ar      1 <0>        -0.0458
     25 C19        -0.4118  -12.1156    7.0696 C.ar      1 <0>        -0.0951
     26 C20        -0.0084  -13.3756    7.4580 C.ar      1 <0>        -0.1402
     27 C21         0.2977  -14.3345    6.5001 C.ar      1 <0>         0.1535
     28 C22         0.1981  -14.0267    5.1487 C.ar      1 <0>        -0.1151
     29 C23        -0.2113  -12.7702    4.7550 C.ar      1 <0>        -0.0799
     30 N7          0.7074  -15.6124    6.8970 N.am      1 <0>        -0.6792
     31 C24         0.3346  -16.6921    6.1816 C.2       1 <0>         0.5134
     32 O1         -0.2858  -16.5508    5.1491 O.2       1 <0>        -0.5162
     33 C25         0.6887  -18.0750    6.6647 C.3       1 <0>        -0.1400
     34 C26         0.1522  -19.1131    5.6771 C.3       1 <0>        -0.0970
     35 C27         0.5116  -20.5171    6.1675 C.3       1 <0>        -0.0939
     36 C28        -0.3104  -20.8774    7.4299 C.3       1 <0>        -0.1227
     37 C29        -0.2999  -22.4261    7.4141 C.3       1 <0>        -0.1268
     38 C30        -0.4244  -22.7901    5.9201 C.3       1 <0>        -0.1269
     39 C31         0.0916  -21.5763    5.1275 C.3       1 <0>        -0.1215
     40 H1          1.2584    2.2142    1.0245 H         1 <0>         0.1245
     41 H2         -0.0978    2.1667   -0.1273 H         1 <0>         0.1245
     42 H3         -0.4114    2.0615    1.6217 H         1 <0>         0.1213
     43 H4         -1.6073   -0.0458    1.3045 H         1 <0>         0.1321
     44 H5         -1.3374    0.1908   -0.4391 H         1 <0>         0.1397
     45 H6         -1.7923   -2.2117    0.1775 H         1 <0>         0.1269
     46 H7         -0.2042   -1.9778   -0.6000 H         1 <0>         0.0860
     47 H8          1.3911   -2.1014    2.9024 H         1 <0>         0.1266
     48 H9          1.9057   -1.9047    1.2060 H         1 <0>         0.0859
     49 H10         1.8340    0.3007    2.2756 H         1 <0>         0.1398
     50 H11         0.1634    0.0155    2.8201 H         1 <0>         0.1320
     51 H12        -2.4639   -3.4702    0.9619 H         1 <0>         0.1214
     52 H13        -3.4246   -5.3938    2.1551 H         1 <0>         0.1263
     53 H14         0.0279   -5.5339    4.6922 H         1 <0>         0.1253
     54 H15         0.9853   -3.6160    3.4873 H         1 <0>         0.1212
     55 H16        -4.3865   -6.0686    4.6952 H         1 <0>         0.1979
     56 H17         0.9305   -9.9405    4.3594 H         1 <0>         0.1790
     57 H18        -4.0084  -10.4681    6.4675 H         1 <0>         0.4181
     58 H19        -2.8481  -11.6797    6.5600 H         1 <0>         0.4266
     59 H20        -0.6489  -11.3704    7.8145 H         1 <0>         0.1261
     60 H21         0.0702  -13.6173    8.5076 H         1 <0>         0.1300
     61 H22         0.4369  -14.7736    4.4062 H         1 <0>         0.1426
     62 H23        -0.2932  -12.5329    3.7046 H         1 <0>         0.1292
     63 H24         1.2597  -15.7211    7.6870 H         1 <0>         0.4134
     64 H25         1.7723  -18.1683    6.7369 H         1 <0>         0.0983
     65 H26         0.2435  -18.2424    7.6454 H         1 <0>         0.0990
     66 H27        -0.9314  -19.0198    5.6049 H         1 <0>         0.0720
     67 H28         0.5974  -18.9457    4.6964 H         1 <0>         0.0713
     68 H29         1.5799  -20.5866    6.3727 H         1 <0>         0.0758
     69 H30         0.1752  -20.4970    8.3286 H         1 <0>         0.0648
     70 H31        -1.3287  -20.4971    7.3493 H         1 <0>         0.0678
     71 H32         0.6368  -22.8055    7.8223 H         1 <0>         0.0651
     72 H33        -1.1483  -22.8191    7.9744 H         1 <0>         0.0645
     73 H34         0.1834  -23.6671    5.6976 H         1 <0>         0.0628
     74 H35        -1.4671  -22.9843    5.6688 H         1 <0>         0.0627
     75 H36        -0.7007  -21.1814    4.4915 H         1 <0>         0.0655
     76 H37         0.9498  -21.8643    4.5203 H         1 <0>         0.0634
     77 H38         1.0255    0.0681    0.0163 H         1 <0>         0.4244
@<TRIPOS>BOND
     1    1    2 1
     2    1   40 1
     3    1   41 1
     4    1   42 1
     5    2    7 1
     6    2    3 1
     7    2   77 1
     8    3    4 1
     9    3   43 1
    10    3   44 1
    11    4    5 1
    12    4   45 1
    13    4   46 1
    14    5    6 1
    15    5    8 1
    16    6    7 1
    17    6   47 1
    18    6   48 1
    19    7   49 1
    20    7   50 1
    21    8   13 ar
    22    8    9 ar
    23    9   10 ar
    24    9   51 1
    25   10   11 ar
    26   10   52 1
    27   11   12 ar
    28   11   14 1
    29   12   13 ar
    30   12   53 1
    31   13   54 1
    32   14   18 2
    33   14   15 1
    34   15   16 2
    35   15   55 1
    36   16   17 1
    37   17   22 1
    38   17   18 1
    39   18   19 1
    40   19   20 2
    41   20   21 1
    42   20   56 1
    43   21   22 2
    44   21   24 1
    45   22   23 1
    46   23   57 1
    47   23   58 1
    48   24   29 ar
    49   24   25 ar
    50   25   26 ar
    51   25   59 1
    52   26   27 ar
    53   26   60 1
    54   27   28 ar
    55   27   30 1
    56   28   29 ar
    57   28   61 1
    58   29   62 1
    59   30   31 am
    60   30   63 1
    61   31   32 2
    62   31   33 1
    63   33   34 1
    64   33   64 1
    65   33   65 1
    66   34   35 1
    67   34   66 1
    68   34   67 1
    69   35   39 1
    70   35   36 1
    71   35   68 1
    72   36   37 1
    73   36   69 1
    74   36   70 1
    75   37   38 1
    76   37   71 1
    77   37   72 1
    78   38   39 1
    79   38   73 1
    80   38   74 1
    81   39   75 1
    82   39   76 1
@<TRIPOS>MOLECULE
CHEMBL1083001__1
   76    81     0     0     0
SMALL
USER_CHARGES

@<TRIPOS>ATOM
      1 C1          0.2435    1.7625    0.8446 C.3       1 <0>         0.0244
      2 N1          0.3459    0.2988    0.7725 N.3       1 <0>        -0.5428
      3 C2         -0.9417   -0.3012    0.3983 C.3       1 <0>         0.0385
      4 C3         -0.7512   -1.8025    0.1575 C.3       1 <0>         0.1257
      5 N2         -0.1138   -2.3891    1.3462 N.pl3     1 <0>        -0.6325
      6 C4          1.1089   -1.7564    1.8639 C.3       1 <0>         0.1263
      7 C5          0.8451   -0.2569    2.0374 C.3       1 <0>         0.0388
      8 C6         -0.6556   -3.5183    1.9674 C.ar      1 <0>         0.2182
      9 C7         -1.8710   -4.0331    1.5325 C.ar      1 <0>        -0.1986
     10 C8         -2.4080   -5.1465    2.1436 C.ar      1 <0>        -0.0609
     11 C9         -1.7298   -5.7565    3.1989 C.ar      1 <0>        -0.0503
     12 C10        -0.5100   -5.2380    3.6330 C.ar      1 <0>        -0.0445
     13 C11         0.0249   -4.1274    3.0148 C.ar      1 <0>        -0.1970
     14 C12        -2.3046   -6.9528    3.8579 C.2       1 <0>        -0.1966
     15 C13        -3.6133   -7.0894    4.3355 C.2       1 <0>         0.1144
     16 N3         -3.7525   -8.2853    4.8528 N.2       1 <0>        -0.3274
     17 N4         -2.5442   -8.9811    4.7363 N.pl3     1 <0>        -0.3444
     18 C14        -1.6416   -8.1593    4.1133 C.2       1 <0>         0.3070
     19 N5         -0.3930   -8.5701    3.8638 N.2       1 <0>        -0.4997
     20 C15         0.0121   -9.7731    4.2026 C.2       1 <0>         0.2321
     21 C16        -0.8698  -10.6619    4.8413 C.2       1 <0>        -0.2592
     22 C17        -2.1680  -10.2425    5.1133 C.2       1 <0>         0.5016
     23 N6         -3.0610  -11.0841    5.7352 N.pl3     1 <0>        -0.8256
     24 C18        -0.4209  -12.0214    5.2271 C.ar      1 <0>        -0.0369
     25 C19        -0.3573  -12.3801    6.5731 C.ar      1 <0>        -0.0965
     26 C20         0.0605  -13.6450    6.9292 C.ar      1 <0>        -0.1402
     27 C21         0.4184  -14.5617    5.9481 C.ar      1 <0>         0.1480
     28 C22         0.3564  -14.2066    4.6062 C.ar      1 <0>        -0.1147
     29 C23        -0.0671  -12.9452    4.2444 C.ar      1 <0>        -0.0813
     30 N7          0.8425  -15.8447    6.3123 N.am      1 <0>        -0.6782
     31 C24         0.5169  -16.9048    5.5464 C.2       1 <0>         0.5123
     32 O1         -0.0722  -16.7383    4.4993 O.2       1 <0>        -0.5166
     33 C25         0.8849  -18.2969    5.9910 C.3       1 <0>        -0.1395
     34 C26         0.4037  -19.3088    4.9492 C.3       1 <0>        -0.0972
     35 C27         0.7772  -20.7222    5.4005 C.3       1 <0>        -0.0936
     36 C28        -0.0778  -21.1453    6.6208 C.3       1 <0>        -0.1228
     37 C29        -0.0332  -22.6920    6.5496 C.3       1 <0>        -0.1266
     38 C30        -0.1007  -23.0033    5.0401 C.3       1 <0>        -0.1266
     39 C31         0.4146  -21.7509    4.3096 C.3       1 <0>        -0.1216
     40 H1          1.2270    2.1859    1.0483 H         1 <0>         0.0703
     41 H2         -0.1284    2.1479   -0.1048 H         1 <0>         0.0699
     42 H3         -0.4440    2.0397    1.6436 H         1 <0>         0.0255
     43 H4         -1.6610   -0.1503    1.2032 H         1 <0>         0.0383
     44 H5         -1.3110    0.1693   -0.5130 H         1 <0>         0.0849
     45 H6         -1.7205   -2.2727   -0.0078 H         1 <0>         0.0873
     46 H7         -0.1134   -1.9557   -0.7130 H         1 <0>         0.0690
     47 H8          1.3693   -2.1962    2.8266 H         1 <0>         0.0869
     48 H9          1.9254   -1.9052    1.1573 H         1 <0>         0.0689
     49 H10         1.7717    0.2457    2.3149 H         1 <0>         0.0851
     50 H11         0.1010   -0.1066    2.8195 H         1 <0>         0.0382
     51 H12        -2.3956   -3.5604    0.7153 H         1 <0>         0.1209
     52 H13        -3.3529   -5.5457    1.8057 H         1 <0>         0.1189
     53 H14         0.0170   -5.7081    4.4502 H         1 <0>         0.1179
     54 H15         0.9716   -3.7281    3.3477 H         1 <0>         0.1204
     55 H16        -4.3824   -6.3328    4.2862 H         1 <0>         0.1978
     56 H17         1.0254  -10.0801    3.9893 H         1 <0>         0.1765
     57 H18        -3.9672  -10.7857    5.9107 H         1 <0>         0.4166
     58 H19        -2.7845  -11.9759    5.9983 H         1 <0>         0.4240
     59 H20        -0.6348  -11.6678    7.3360 H         1 <0>         0.1262
     60 H21         0.1099  -13.9234    7.9715 H         1 <0>         0.1284
     61 H22         0.6355  -14.9208    3.8456 H         1 <0>         0.1413
     62 H23        -0.1197  -12.6712    3.2011 H         1 <0>         0.1297
     63 H24         1.3708  -15.9709    7.1160 H         1 <0>         0.4124
     64 H25         1.9673  -18.3706    6.0961 H         1 <0>         0.0975
     65 H26         0.4114  -18.5093    6.9495 H         1 <0>         0.0980
     66 H27        -0.6787  -19.2352    4.8440 H         1 <0>         0.0720
     67 H28         0.8771  -19.0965    3.9906 H         1 <0>         0.0715
     68 H29         1.8394  -20.7773    5.6389 H         1 <0>         0.0755
     69 H30         0.3696  -20.7883    7.5484 H         1 <0>         0.0648
     70 H31        -1.1009  -20.7833    6.5197 H         1 <0>         0.0680
     71 H32         0.8976  -23.0668    6.9752 H         1 <0>         0.0647
     72 H33        -0.8908  -23.1225    7.0666 H         1 <0>         0.0640
     73 H34         0.5330  -23.8589    4.8067 H         1 <0>         0.0622
     74 H35        -1.1301  -23.2095    4.7471 H         1 <0>         0.0625
     75 H36        -0.3647  -21.3493    3.6619 H         1 <0>         0.0658
     76 H37         1.2983  -21.9987    3.7216 H         1 <0>         0.0632
@<TRIPOS>BOND
     1    1    2 1
     2    1   40 1
     3    1   41 1
     4    1   42 1
     5    2    7 1
     6    2    3 1
     7    3    4 1
     8    3   43 1
     9    3   44 1
    10    4    5 1
    11    4   45 1
    12    4   46 1
    13    5    6 1
    14    5    8 1
    15    6    7 1
    16    6   47 1
    17    6   48 1
    18    7   49 1
    19    7   50 1
    20    8   13 ar
    21    8    9 ar
    22    9   10 ar
    23    9   51 1
    24   10   11 ar
    25   10   52 1
    26   11   12 ar
    27   11   14 1
    28   12   13 ar
    29   12   53 1
    30   13   54 1
    31   14   18 2
    32   14   15 1
    33   15   16 2
    34   15   55 1
    35   16   17 1
    36   17   22 1
    37   17   18 1
    38   18   19 1
    39   19   20 2
    40   20   21 1
    41   20   56 1
    42   21   22 2
    43   21   24 1
    44   22   23 1
    45   23   57 1
    46   23   58 1
    47   24   29 ar
    48   24   25 ar
    49   25   26 ar
    50   25   59 1
    51   26   27 ar
    52   26   60 1
    53   27   28 ar
    54   27   30 1
    55   28   29 ar
    56   28   61 1
    57   29   62 1
    58   30   31 am
    59   30   63 1
    60   31   32 2
    61   31   33 1
    62   33   34 1
    63   33   64 1
    64   33   65 1
    65   34   35 1
    66   34   66 1
    67   34   67 1
    68   35   39 1
    69   35   36 1
    70   35   68 1
    71   36   37 1
    72   36   69 1
    73   36   70 1
    74   37   38 1
    75   37   71 1
    76   37   72 1
    77   38   39 1
    78   38   73 1
    79   38   74 1
    80   39   75 1
    81   39   76 1
@<TRIPOS>MOLECULE
CHEMBL1085733
   71    76     0     0     0
SMALL
USER_CHARGES

@<TRIPOS>ATOM
      1 C1          0.0734    1.4891    0.0558 C.3       1 <0>        -0.0469
      2 N1          0.0901    0.0203    0.0460 N.4       1 <0>        -0.3837
      3 C2         -1.2893   -0.4831    0.0378 C.3       1 <0>        -0.0232
      4 C3         -1.2740   -2.0101   -0.0880 C.3       1 <0>         0.0996
      5 N2         -0.4339   -2.5583    0.9881 N.pl3     1 <0>        -0.6461
      6 C4          0.9119   -1.9936    1.1728 C.3       1 <0>         0.1001
      7 C5          0.7934   -0.4674    1.2391 C.3       1 <0>        -0.0229
      8 C6         -0.9015   -3.5864    1.8121 C.ar      1 <0>         0.1875
      9 C7         -2.2118   -4.0324    1.6888 C.ar      1 <0>        -0.1818
     10 C8         -2.6755   -5.0466    2.5000 C.ar      1 <0>        -0.0669
     11 C9         -1.8280   -5.6248    3.4449 C.ar      1 <0>        -0.0125
     12 C10        -0.5133   -5.1752    3.5665 C.ar      1 <0>        -0.0503
     13 C11        -0.0533   -4.1642    2.7491 C.ar      1 <0>        -0.1800
     14 C12        -2.3236   -6.7146    4.3183 C.2       1 <0>        -0.2245
     15 C13        -3.5064   -6.7056    5.0670 C.2       1 <0>         0.1198
     16 N3         -3.6072   -7.8415    5.7127 N.2       1 <0>        -0.3226
     17 N4         -2.4979   -8.6405    5.4151 N.pl3     1 <0>        -0.3435
     18 C14        -1.6991   -7.9473    4.5436 C.2       1 <0>         0.3195
     19 N5         -0.5611   -8.4773    4.0809 N.2       1 <0>        -0.5103
     20 C15        -0.1700   -9.6789    4.4405 C.2       1 <0>         0.2392
     21 C16        -0.9495  -10.4393    5.3292 C.2       1 <0>        -0.2553
     22 C17        -2.1304   -9.8947    5.8235 C.2       1 <0>         0.5052
     23 N6         -2.9218  -10.6089    6.6931 N.pl3     1 <0>        -0.8205
     24 C18        -0.5156  -11.7961    5.7403 C.ar      1 <0>        -0.0423
     25 C19        -0.1891  -12.0514    7.0717 C.ar      1 <0>        -0.0931
     26 C20         0.2137  -13.3142    7.4516 C.ar      1 <0>        -0.1133
     27 C21         0.2948  -14.3320    6.5088 C.ar      1 <0>         0.1538
     28 C22        -0.0297  -14.0800    5.1811 C.ar      1 <0>        -0.1369
     29 C23        -0.4390  -12.8205    4.7973 C.ar      1 <0>        -0.0783
     30 N7          0.7040  -15.6119    6.8966 N.am      1 <0>        -0.6697
     31 C24         0.3655  -16.0885    8.1110 C.2       1 <0>         0.5612
     32 O1         -0.3768  -15.4483    8.8300 O.2       1 <0>        -0.5054
     33 C25         0.8966  -17.3898    8.5685 C.ar      1 <0>        -0.1091
     34 C26         1.7537  -18.1249    7.7477 C.ar      1 <0>        -0.0866
     35 C27         2.2458  -19.3387    8.1808 C.ar      1 <0>        -0.0750
     36 C28         1.8913  -19.8281    9.4255 C.ar      1 <0>        -0.1530
     37 C29         1.0418  -19.1048   10.2438 C.ar      1 <0>        -0.0743
     38 C30         0.5479  -17.8864    9.8256 C.ar      1 <0>        -0.0562
     39 C31         2.4324  -21.1550    9.8918 C.3       1 <0>         0.5063
     40 F1          3.6380  -20.9539   10.5723 F         1 <0>        -0.1718
     41 F2          1.5079  -21.7601   10.7499 F         1 <0>        -0.1726
     42 F3          2.6535  -21.9830    8.7860 F         1 <0>        -0.1733
     43 H1          1.0969    1.8641    0.0537 H         1 <0>         0.1246
     44 H2         -0.4485    1.8525   -0.8295 H         1 <0>         0.1246
     45 H3         -0.4406    1.8407    0.9504 H         1 <0>         0.1213
     46 H4         -1.7850   -0.1999    0.9664 H         1 <0>         0.1321
     47 H5         -1.8277   -0.0541   -0.8073 H         1 <0>         0.1397
     48 H6         -2.2890   -2.3956    0.0073 H         1 <0>         0.1269
     49 H7         -0.8606   -2.2937   -1.0559 H         1 <0>         0.0860
     50 H8          1.3420   -2.3683    2.1017 H         1 <0>         0.1266
     51 H9          1.5459   -2.2756    0.3323 H         1 <0>         0.0860
     52 H10         1.7896   -0.0269    1.2792 H         1 <0>         0.1398
     53 H11         0.2347   -0.1847    2.1313 H         1 <0>         0.1321
     54 H12        -2.8677   -3.5841    0.9572 H         1 <0>         0.1215
     55 H13        -3.6941   -5.3927    2.4039 H         1 <0>         0.1263
     56 H14         0.1450   -5.6211    4.2973 H         1 <0>         0.1253
     57 H15         0.9658   -3.8185    2.8400 H         1 <0>         0.1213
     58 H16        -4.2190   -5.8951    5.1064 H         1 <0>         0.1981
     59 H17         0.7529  -10.0835    4.0520 H         1 <0>         0.1790
     60 H18        -3.7491  -10.2247    7.0230 H         1 <0>         0.4185
     61 H19        -2.6525  -11.4967    6.9763 H         1 <0>         0.4272
     62 H20        -0.2512  -11.2606    7.8046 H         1 <0>         0.1269
     63 H21         0.4667  -13.5124    8.4826 H         1 <0>         0.1377
     64 H22         0.0344  -14.8725    4.4503 H         1 <0>         0.1322
     65 H23        -0.6957  -12.6264    3.7664 H         1 <0>         0.1318
     66 H24         1.2316  -16.1565    6.2916 H         1 <0>         0.4134
     67 H25         2.0306  -17.7444    6.7756 H         1 <0>         0.1393
     68 H26         2.9090  -19.9084    7.5468 H         1 <0>         0.1470
     69 H27         0.7685  -19.4927   11.2140 H         1 <0>         0.1482
     70 H28        -0.1113  -17.3206   10.4673 H         1 <0>         0.1517
     71 H29         0.5687   -0.3039   -0.7810 H         1 <0>         0.4244
@<TRIPOS>BOND
     1    1    2 1
     2    1   43 1
     3    1   44 1
     4    1   45 1
     5    2    7 1
     6    2    3 1
     7    2   71 1
     8    3    4 1
     9    3   46 1
    10    3   47 1
    11    4    5 1
    12    4   48 1
    13    4   49 1
    14    5    6 1
    15    5    8 1
    16    6    7 1
    17    6   50 1
    18    6   51 1
    19    7   52 1
    20    7   53 1
    21    8   13 ar
    22    8    9 ar
    23    9   10 ar
    24    9   54 1
    25   10   11 ar
    26   10   55 1
    27   11   12 ar
    28   11   14 1
    29   12   13 ar
    30   12   56 1
    31   13   57 1
    32   14   18 2
    33   14   15 1
    34   15   16 2
    35   15   58 1
    36   16   17 1
    37   17   22 1
    38   17   18 1
    39   18   19 1
    40   19   20 2
    41   20   21 1
    42   20   59 1
    43   21   22 2
    44   21   24 1
    45   22   23 1
    46   23   60 1
    47   23   61 1
    48   24   29 ar
    49   24   25 ar
    50   25   26 ar
    51   25   62 1
    52   26   27 ar
    53   26   63 1
    54   27   28 ar
    55   27   30 1
    56   28   29 ar
    57   28   64 1
    58   29   65 1
    59   30   31 am
    60   30   66 1
    61   31   32 2
    62   31   33 1
    63   33   38 ar
    64   33   34 ar
    65   34   35 ar
    66   34   67 1
    67   35   36 ar
    68   35   68 1
    69   36   37 ar
    70   36   39 1
    71   37   38 ar
    72   37   69 1
    73   38   70 1
    74   39   40 1
    75   39   41 1
    76   39   42 1
@<TRIPOS>MOLECULE
CHEMBL1085733__1
   70    75     0     0     0
SMALL
USER_CHARGES

@<TRIPOS>ATOM
      1 C1          0.0724    1.4898    0.0603 C.3       1 <0>         0.0244
      2 N1          0.0891    0.0209    0.0504 N.3       1 <0>        -0.5428
      3 C2         -1.2728   -0.5204   -0.0504 C.3       1 <0>         0.0385
      4 C3         -1.2024   -2.0394   -0.2400 C.3       1 <0>         0.1257
      5 N2         -0.3858   -2.6080    0.8431 N.pl3     1 <0>        -0.6324
      6 C4          0.9405   -2.0241    1.0946 C.3       1 <0>         0.1263
      7 C5          0.7857   -0.5057    1.2316 C.3       1 <0>         0.0387
      8 C6         -0.8575   -3.6756    1.6127 C.ar      1 <0>         0.2185
      9 C7         -2.1528   -4.1441    1.4288 C.ar      1 <0>        -0.1989
     10 C8         -2.6205   -5.1973    2.1862 C.ar      1 <0>        -0.0608
     11 C9         -1.7922   -5.7924    3.1376 C.ar      1 <0>        -0.0508
     12 C10        -0.4925   -5.3202    3.3201 C.ar      1 <0>        -0.0443
     13 C11        -0.0282   -4.2701    2.5562 C.ar      1 <0>        -0.1972
     14 C12        -2.2922   -6.9240    3.9534 C.2       1 <0>        -0.1957
     15 C13        -3.4990   -6.9677    4.6614 C.2       1 <0>         0.1145
     16 N3         -3.5959   -8.1287    5.2614 N.2       1 <0>        -0.3266
     17 N4         -2.4599   -8.8927    4.9727 N.pl3     1 <0>        -0.3447
     18 C14        -1.6483   -8.1509    4.1547 C.2       1 <0>         0.3066
     19 N5         -0.4841   -8.6394    3.7118 N.2       1 <0>        -0.4997
     20 C15        -0.0786   -9.8451    4.0404 C.2       1 <0>         0.2323
     21 C16        -0.8701  -10.6542    4.8737 C.2       1 <0>        -0.2623
     22 C17        -2.0785  -10.1532    5.3473 C.2       1 <0>         0.5031
     23 N6         -2.8822  -10.9157    6.1629 N.pl3     1 <0>        -0.8250
     24 C18        -0.4201  -12.0160    5.2496 C.ar      1 <0>        -0.0333
     25 C19        -0.1322  -12.3138    6.5811 C.ar      1 <0>        -0.0944
     26 C20         0.2856  -13.5811    6.9281 C.ar      1 <0>        -0.1130
     27 C21         0.4204  -14.5612    5.9521 C.ar      1 <0>         0.1480
     28 C22         0.1346  -14.2668    4.6243 C.ar      1 <0>        -0.1364
     29 C23        -0.2896  -13.0028    4.2730 C.ar      1 <0>        -0.0798
     30 N7          0.8449  -15.8458    6.3066 N.am      1 <0>        -0.6684
     31 C24         0.4770  -16.3742    7.4906 C.2       1 <0>         0.5596
     32 O1         -0.3027  -15.7768    8.2069 O.2       1 <0>        -0.5057
     33 C25         1.0215  -17.6802    7.9182 C.ar      1 <0>        -0.1067
     34 C26         1.9214  -18.3660    7.1007 C.ar      1 <0>        -0.0867
     35 C27         2.4259  -19.5845    7.5057 C.ar      1 <0>        -0.0751
     36 C28         2.0413  -20.1271    8.7190 C.ar      1 <0>        -0.1550
     37 C29         1.1493  -19.4527    9.5339 C.ar      1 <0>        -0.0748
     38 C30         0.6425  -18.2303    9.1439 C.ar      1 <0>        -0.0568
     39 C31         2.5961  -21.4588    9.1547 C.3       1 <0>         0.5067
     40 F1          3.7738  -21.2578    9.8826 F         1 <0>        -0.1723
     41 F2          1.6574  -22.1146    9.9584 F         1 <0>        -0.1732
     42 F3          2.8721  -22.2403    8.0276 F         1 <0>        -0.1737
     43 H1          1.0959    1.8648    0.0585 H         1 <0>         0.0703
     44 H2         -0.4492    1.8532   -0.8251 H         1 <0>         0.0699
     45 H3         -0.4418    1.8412    0.9548 H         1 <0>         0.0255
     46 H4         -1.8231   -0.2929    0.8625 H         1 <0>         0.0383
     47 H5         -1.7807   -0.0706   -0.9035 H         1 <0>         0.0849
     48 H6         -2.2071   -2.4602   -0.2006 H         1 <0>         0.0873
     49 H7         -0.7443   -2.2675   -1.2024 H         1 <0>         0.0690
     50 H8          1.3525   -2.4348    2.0164 H         1 <0>         0.0870
     51 H9          1.6045   -2.2507    0.2605 H         1 <0>         0.0689
     52 H10         1.7707   -0.0451    1.3084 H         1 <0>         0.0851
     53 H11         0.2068   -0.2783    2.1267 H         1 <0>         0.0383
     54 H12        -2.7939   -3.6827    0.6922 H         1 <0>         0.1210
     55 H13        -3.6274   -5.5608    2.0431 H         1 <0>         0.1189
     56 H14         0.1510   -5.7791    4.0561 H         1 <0>         0.1180
     57 H15         0.9794   -3.9067    2.6942 H         1 <0>         0.1205
     58 H16        -4.2303   -6.1742    4.7062 H         1 <0>         0.1980
     59 H17         0.8654  -10.2156    3.6689 H         1 <0>         0.1765
     60 H18        -3.7283  -10.5614    6.4784 H         1 <0>         0.4170
     61 H19        -2.6029  -11.8076    6.4225 H         1 <0>         0.4247
     62 H20        -0.2361  -11.5522    7.3398 H         1 <0>         0.1270
     63 H21         0.5087  -13.8122    7.9592 H         1 <0>         0.1362
     64 H22         0.2404  -15.0301    3.8676 H         1 <0>         0.1309
     65 H23        -0.5162  -12.7758    3.2417 H         1 <0>         0.1323
     66 H24         1.4041  -16.3563    5.7004 H         1 <0>         0.4125
     67 H25         2.2218  -17.9439    6.1531 H         1 <0>         0.1398
     68 H26         3.1222  -20.1162    6.8742 H         1 <0>         0.1466
     69 H27         0.8527  -19.8821   10.4794 H         1 <0>         0.1475
     70 H28        -0.0499  -17.7027    9.7830 H         1 <0>         0.1517
@<TRIPOS>BOND
     1    1    2 1
     2    1   43 1
     3    1   44 1
     4    1   45 1
     5    2    7 1
     6    2    3 1
     7    3    4 1
     8    3   46 1
     9    3   47 1
    10    4    5 1
    11    4   48 1
    12    4   49 1
    13    5    6 1
    14    5    8 1
    15    6    7 1
    16    6   50 1
    17    6   51 1
    18    7   52 1
    19    7   53 1
    20    8   13 ar
    21    8    9 ar
    22    9   10 ar
    23    9   54 1
    24   10   11 ar
    25   10   55 1
    26   11   12 ar
    27   11   14 1
    28   12   13 ar
    29   12   56 1
    30   13   57 1
    31   14   18 2
    32   14   15 1
    33   15   16 2
    34   15   58 1
    35   16   17 1
    36   17   22 1
    37   17   18 1
    38   18   19 1
    39   19   20 2
    40   20   21 1
    41   20   59 1
    42   21   22 2
    43   21   24 1
    44   22   23 1
    45   23   60 1
    46   23   61 1
    47   24   29 ar
    48   24   25 ar
    49   25   26 ar
    50   25   62 1
    51   26   27 ar
    52   26   63 1
    53   27   28 ar
    54   27   30 1
    55   28   29 ar
    56   28   64 1
    57   29   65 1
    58   30   31 am
    59   30   66 1
    60   31   32 2
    61   31   33 1
    62   33   38 ar
    63   33   34 ar
    64   34   35 ar
    65   34   67 1
    66   35   36 ar
    67   35   68 1
    68   36   37 ar
    69   36   39 1
    70   37   38 ar
    71   37   69 1
    72   38   70 1
    73   39   40 1
    74   39   41 1
    75   39   42 1
@<TRIPOS>MOLECULE
CHEMBL567669
   61    65     0     0     0
SMALL
USER_CHARGES

@<TRIPOS>ATOM
      1 C1         -0.0187    1.5258    0.0104 C.3       1 <0>        -0.1692
      2 C2          0.0021   -0.0041    0.0020 C.3       1 <0>         0.1670
      3 C3         -1.4333   -0.5336    0.0129 C.3       1 <0>        -0.1107
      4 C4         -2.1373   -0.1280   -1.2841 C.3       1 <0>        -0.1127
      5 C5         -3.5626   -0.6852   -1.2886 C.3       1 <0>        -0.1356
      6 C6         -4.3418   -0.0931   -0.1100 C.3       1 <0>         0.1034
      7 N1         -3.5959   -0.3539    1.1287 N.am      1 <0>        -0.6149
      8 C7         -2.1883    0.0601    1.2063 C.3       1 <0>         0.1116
      9 C8         -4.1917   -0.9610    2.1742 C.2       1 <0>         0.5168
     10 O1         -3.5652   -1.1706    3.1912 O.2       1 <0>        -0.5265
     11 C9         -5.6364   -1.3792    2.0794 C.3       1 <0>        -0.1007
     12 C10        -6.0569   -2.0299    3.3720 C.ar      1 <0>        -0.0705
     13 C11        -5.9077   -3.3939    3.5397 C.ar      1 <0>        -0.1052
     14 C12        -6.2934   -3.9908    4.7254 C.ar      1 <0>        -0.1185
     15 C13        -6.8278   -3.2236    5.7435 C.ar      1 <0>        -0.1183
     16 C14        -6.9761   -1.8595    5.5762 C.ar      1 <0>        -0.1185
     17 C15        -6.5865   -1.2620    4.3921 C.ar      1 <0>        -0.1052
     18 N2          0.7106   -0.4894    1.1889 N.pl3     1 <0>        -0.6898
     19 C16         2.0899   -0.6028    1.1733 C.ar      1 <0>         0.6015
     20 N3          2.7537   -0.2628    0.0781 N.ar      1 <0>        -0.5747
     21 C17         4.0735   -0.3573    0.0259 C.ar      1 <0>         0.2225
     22 C18         4.7625   -0.8178    1.1328 C.ar      1 <0>        -0.3085
     23 C19         4.0362   -1.1679    2.2704 C.ar      1 <0>         0.4503
     24 N4          2.7139   -1.0433    2.2552 N.ar      1 <0>        -0.5920
     25 N5          4.6887   -1.6371    3.4087 N.pl3     1 <0>        -0.4406
     26 C20         6.0345   -1.8020    3.5603 C.2       1 <0>         0.2744
     27 N6          6.2968   -2.2577    4.7497 N.2       1 <0>        -0.4709
     28 C21         5.1407   -2.4177    5.4450 C.ar      1 <0>         0.0423
     29 C22         4.0931   -2.0174    4.5985 C.ar      1 <0>         0.0569
     30 C23         2.7819   -2.0676    5.0477 C.ar      1 <0>        -0.0892
     31 C24         2.5111   -2.5080    6.3263 C.ar      1 <0>        -0.1024
     32 C25         3.5418   -2.9011    7.1674 C.ar      1 <0>        -0.1194
     33 C26         4.8486   -2.8654    6.7357 C.ar      1 <0>        -0.0667
     34 H1          1.0039    1.9031    0.0027 H         1 <0>         0.0635
     35 H2         -0.5459    1.8868   -0.8726 H         1 <0>         0.0717
     36 H3         -0.5289    1.8773    0.9072 H         1 <0>         0.0593
     37 H4          0.5123   -0.3556   -0.8948 H         1 <0>         0.0993
     38 H5         -1.4195   -1.6204    0.0953 H         1 <0>         0.0823
     39 H6         -2.1721    0.9592   -1.3536 H         1 <0>         0.0735
     40 H7         -1.5880   -0.5287   -2.1360 H         1 <0>         0.0728
     41 H8         -4.0556   -0.4157   -2.2227 H         1 <0>         0.0818
     42 H9         -3.5293   -1.7706   -1.1942 H         1 <0>         0.0688
     43 H10        -4.4541    0.9821   -0.2494 H         1 <0>         0.0733
     44 H11        -5.3247   -0.5606   -0.0500 H         1 <0>         0.0878
     45 H12        -1.7503   -0.3062    2.1347 H         1 <0>         0.0891
     46 H13        -2.1251    1.1478    1.1742 H         1 <0>         0.0762
     47 H14        -6.2572   -0.5024    1.8953 H         1 <0>         0.1031
     48 H15        -5.7565   -2.0879    1.2600 H         1 <0>         0.1029
     49 H16        -5.4902   -3.9933    2.7442 H         1 <0>         0.1180
     50 H17        -6.1775   -5.0566    4.8561 H         1 <0>         0.1222
     51 H18        -7.1298   -3.6901    6.6696 H         1 <0>         0.1219
     52 H19        -7.3940   -1.2601    6.3716 H         1 <0>         0.1224
     53 H20        -6.6989   -0.1957    4.2628 H         1 <0>         0.1186
     54 H21         0.2131   -0.7312    1.9857 H         1 <0>         0.4140
     55 H22         4.6058   -0.0781   -0.8713 H         1 <0>         0.1790
     56 H23         5.8389   -0.9048    1.1164 H         1 <0>         0.1508
     57 H24         6.7738   -1.5859    2.8033 H         1 <0>         0.2230
     58 H25         1.9750   -1.7623    4.3980 H         1 <0>         0.1382
     59 H26         1.4897   -2.5467    6.6752 H         1 <0>         0.1334
     60 H27         3.3169   -3.2437    8.1666 H         1 <0>         0.1335
     61 H28         5.6460   -3.1719    7.3963 H         1 <0>         0.1336
@<TRIPOS>BOND
     1    1    2 1
     2    1   34 1
     3    1   35 1
     4    1   36 1
     5    2    3 1
     6    2   18 1
     7    2   37 1
     8    3    8 1
     9    3    4 1
    10    3   38 1
    11    4    5 1
    12    4   39 1
    13    4   40 1
    14    5    6 1
    15    5   41 1
    16    5   42 1
    17    6    7 1
    18    6   43 1
    19    6   44 1
    20    7    8 1
    21    7    9 am
    22    8   45 1
    23    8   46 1
    24    9   10 2
    25    9   11 1
    26   11   12 1
    27   11   47 1
    28   11   48 1
    29   12   17 ar
    30   12   13 ar
    31   13   14 ar
    32   13   49 1
    33   14   15 ar
    34   14   50 1
    35   15   16 ar
    36   15   51 1
    37   16   17 ar
    38   16   52 1
    39   17   53 1
    40   18   19 1
    41   18   54 1
    42   19   24 ar
    43   19   20 ar
    44   20   21 ar
    45   21   22 ar
    46   21   55 1
    47   22   23 ar
    48   22   56 1
    49   23   24 ar
    50   23   25 1
    51   25   29 1
    52   25   26 1
    53   26   27 2
    54   26   57 1
    55   27   28 1
    56   28   33 ar
    57   28   29 ar
    58   29   30 ar
    59   30   31 ar
    60   30   58 1
    61   31   32 ar
    62   31   59 1
    63   32   33 ar
    64   32   60 1
    65   33   61 1
@<TRIPOS>MOLECULE
CHEMBL567669__1
   61    65     0     0     0
SMALL
USER_CHARGES

@<TRIPOS>ATOM
      1 C1         -0.0187    1.5258    0.0104 C.3       1 <0>        -0.1640
      2 C2          0.0021   -0.0041    0.0020 C.3       1 <0>         0.1665
      3 C3         -1.4333   -0.5336    0.0129 C.3       1 <0>        -0.1101
      4 C4         -2.1729   -0.0303   -1.2288 C.3       1 <0>        -0.1135
      5 C5         -3.6183   -0.5325   -1.2023 C.3       1 <0>        -0.1352
      6 C6         -3.6230   -2.0642   -1.2245 C.3       1 <0>         0.1029
      7 N1         -2.7930   -2.5558   -0.1162 N.am      1 <0>        -0.6156
      8 C7         -1.4132   -2.0654    0.0045 C.3       1 <0>         0.1183
      9 C8         -3.2880   -3.4394    0.7730 C.2       1 <0>         0.5166
     10 O1         -2.5927   -3.8376    1.6834 O.2       1 <0>        -0.5260
     11 C9         -4.7054   -3.9325    0.6359 C.3       1 <0>        -0.1006
     12 C10        -5.0089   -4.9041    1.7473 C.ar      1 <0>        -0.0704
     13 C11        -4.7619   -6.2529    1.5728 C.ar      1 <0>        -0.1053
     14 C12        -5.0403   -7.1441    2.5922 C.ar      1 <0>        -0.1184
     15 C13        -5.5652   -6.6863    3.7863 C.ar      1 <0>        -0.1184
     16 C14        -5.8114   -5.3373    3.9611 C.ar      1 <0>        -0.1186
     17 C15        -5.5290   -4.4456    2.9432 C.ar      1 <0>        -0.1052
     18 N2          0.7106   -0.4894    1.1889 N.pl3     1 <0>        -0.6890
     19 C16         2.0899   -0.6028    1.1733 C.ar      1 <0>         0.6020
     20 N3          2.7537   -0.2628    0.0781 N.ar      1 <0>        -0.5748
     21 C17         4.0735   -0.3573    0.0259 C.ar      1 <0>         0.2224
     22 C18         4.7625   -0.8178    1.1328 C.ar      1 <0>        -0.3086
     23 C19         4.0362   -1.1679    2.2704 C.ar      1 <0>         0.4504
     24 N4          2.7139   -1.0433    2.2552 N.ar      1 <0>        -0.5915
     25 N5          4.6887   -1.6371    3.4087 N.pl3     1 <0>        -0.4406
     26 C20         6.0345   -1.8020    3.5603 C.2       1 <0>         0.2745
     27 N6          6.2968   -2.2577    4.7497 N.2       1 <0>        -0.4711
     28 C21         5.1407   -2.4177    5.4450 C.ar      1 <0>         0.0424
     29 C22         4.0931   -2.0174    4.5985 C.ar      1 <0>         0.0572
     30 C23         2.7819   -2.0676    5.0477 C.ar      1 <0>        -0.0888
     31 C24         2.5111   -2.5080    6.3263 C.ar      1 <0>        -0.1027
     32 C25         3.5418   -2.9011    7.1674 C.ar      1 <0>        -0.1195
     33 C26         4.8486   -2.8654    6.7357 C.ar      1 <0>        -0.0667
     34 H1          1.0039    1.9031    0.0027 H         1 <0>         0.0632
     35 H2         -0.5459    1.8868   -0.8726 H         1 <0>         0.0718
     36 H3         -0.5289    1.8773    0.9072 H         1 <0>         0.0559
     37 H4          0.5123   -0.3556   -0.8948 H         1 <0>         0.0973
     38 H5         -1.9443   -0.1814    0.9090 H         1 <0>         0.0815
     39 H6         -2.1672    1.0596   -1.2380 H         1 <0>         0.0763
     40 H7         -1.6752   -0.4034   -2.1240 H         1 <0>         0.0706
     41 H8         -4.1092   -0.1803   -0.2950 H         1 <0>         0.0691
     42 H9         -4.1509   -0.1543   -2.0749 H         1 <0>         0.0816
     43 H10        -4.6436   -2.4283   -1.1060 H         1 <0>         0.0875
     44 H11        -3.2145   -2.4172   -2.1714 H         1 <0>         0.0727
     45 H12        -0.8246   -2.4185   -0.8422 H         1 <0>         0.0674
     46 H13        -0.9758   -2.4302    0.9338 H         1 <0>         0.0925
     47 H14        -5.3914   -3.0875    0.6946 H         1 <0>         0.1030
     48 H15        -4.8251   -4.4316   -0.3257 H         1 <0>         0.1028
     49 H16        -4.3518   -6.6106    0.6399 H         1 <0>         0.1183
     50 H17        -4.8480   -8.1980    2.4557 H         1 <0>         0.1223
     51 H18        -5.7834   -7.3826    4.5825 H         1 <0>         0.1219
     52 H19        -6.2218   -4.9797    4.8939 H         1 <0>         0.1223
     53 H20        -5.7178   -3.3913    3.0811 H         1 <0>         0.1182
     54 H21         0.2131   -0.7312    1.9857 H         1 <0>         0.4142
     55 H22         4.6058   -0.0781   -0.8713 H         1 <0>         0.1788
     56 H23         5.8389   -0.9048    1.1164 H         1 <0>         0.1507
     57 H24         6.7738   -1.5859    2.8033 H         1 <0>         0.2230
     58 H25         1.9750   -1.7623    4.3980 H         1 <0>         0.1382
     59 H26         1.4897   -2.5467    6.6752 H         1 <0>         0.1330
     60 H27         3.3169   -3.2437    8.1666 H         1 <0>         0.1334
     61 H28         5.6460   -3.1719    7.3963 H         1 <0>         0.1336
@<TRIPOS>BOND
     1    1    2 1
     2    1   34 1
     3    1   35 1
     4    1   36 1
     5    2    3 1
     6    2   18 1
     7    2   37 1
     8    3    8 1
     9    3    4 1
    10    3   38 1
    11    4    5 1
    12    4   39 1
    13    4   40 1
    14    5    6 1
    15    5   41 1
    16    5   42 1
    17    6    7 1
    18    6   43 1
    19    6   44 1
    20    7    8 1
    21    7    9 am
    22    8   45 1
    23    8   46 1
    24    9   10 2
    25    9   11 1
    26   11   12 1
    27   11   47 1
    28   11   48 1
    29   12   17 ar
    30   12   13 ar
    31   13   14 ar
    32   13   49 1
    33   14   15 ar
    34   14   50 1
    35   15   16 ar
    36   15   51 1
    37   16   17 ar
    38   16   52 1
    39   17   53 1
    40   18   19 1
    41   18   54 1
    42   19   24 ar
    43   19   20 ar
    44   20   21 ar
    45   21   22 ar
    46   21   55 1
    47   22   23 ar
    48   22   56 1
    49   23   24 ar
    50   23   25 1
    51   25   29 1
    52   25   26 1
    53   26   27 2
    54   26   57 1
    55   27   28 1
    56   28   33 ar
    57   28   29 ar
    58   29   30 ar
    59   30   31 ar
    60   30   58 1
    61   31   32 ar
    62   31   59 1
    63   32   33 ar
    64   32   60 1
    65   33   61 1
@<TRIPOS>MOLECULE
CHEMBL567669__2
   61    65     0     0     0
SMALL
USER_CHARGES

@<TRIPOS>ATOM
      1 C1         -0.0187    1.5258    0.0104 C.3       1 <0>        -0.1640
      2 C2          0.0021   -0.0041    0.0020 C.3       1 <0>         0.1664
      3 C3          0.7421   -0.5109    1.2415 C.3       1 <0>        -0.1101
      4 C4          2.1792    0.0152    1.2292 C.3       1 <0>        -0.1135
      5 C5          2.9105   -0.4642    2.4852 C.3       1 <0>        -0.1351
      6 C6          2.9562   -1.9954    2.4915 C.3       1 <0>         0.1029
      7 N1          1.5865   -2.5100    2.3573 N.am      1 <0>        -0.6155
      8 C7          0.7632   -2.0427    1.2337 C.3       1 <0>         0.1184
      9 C8          1.0949   -3.3942    3.2478 C.2       1 <0>         0.5165
     10 O1         -0.0374   -3.8115    3.1261 O.2       1 <0>        -0.5261
     11 C9          1.9520   -3.8644    4.3947 C.3       1 <0>        -0.1005
     12 C10         1.1726   -4.8415    5.2366 C.ar      1 <0>        -0.0704
     13 C11         0.4055   -4.3859    6.2924 C.ar      1 <0>        -0.1051
     14 C12        -0.3094   -5.2822    7.0647 C.ar      1 <0>        -0.1185
     15 C13        -0.2575   -6.6341    6.7809 C.ar      1 <0>        -0.1184
     16 C14         0.5090   -7.0896    5.7245 C.ar      1 <0>        -0.1184
     17 C15         1.2204   -6.1929    4.9496 C.ar      1 <0>        -0.1053
     18 N2         -1.3723   -0.5112    0.0124 N.pl3     1 <0>        -0.6890
     19 C16        -2.0691   -0.6463   -1.1758 C.ar      1 <0>         0.6020
     20 N3         -1.4755   -0.3173   -2.3138 N.ar      1 <0>        -0.5748
     21 C17        -2.1101   -0.4334   -3.4702 C.ar      1 <0>         0.2224
     22 C18        -3.4099   -0.9051   -3.4836 C.ar      1 <0>        -0.3085
     23 C19        -4.0076   -1.2430   -2.2700 C.ar      1 <0>         0.4504
     24 N4         -3.3107   -1.1063   -1.1475 N.ar      1 <0>        -0.5915
     25 N5         -5.3157   -1.7219   -2.2357 N.pl3     1 <0>        -0.4405
     26 C20        -6.1340   -1.9190   -3.3094 C.2       1 <0>         0.2744
     27 N6         -7.2859   -2.3754   -2.9144 N.2       1 <0>        -0.4711
     28 C21        -7.2893   -2.5036   -1.5619 C.ar      1 <0>         0.0424
     29 C22        -6.0252   -2.0921   -1.1068 C.ar      1 <0>         0.0572
     30 C23        -5.7341   -2.1207    0.2490 C.ar      1 <0>        -0.0888
     31 C24        -6.6866   -2.5562    1.1462 C.ar      1 <0>        -0.1027
     32 C25        -7.9350   -2.9669    0.7019 C.ar      1 <0>        -0.1195
     33 C26        -8.2441   -2.9377   -0.6392 C.ar      1 <0>        -0.0667
     34 H1          1.0039    1.9031    0.0027 H         1 <0>         0.0718
     35 H2         -0.5459    1.8868   -0.8726 H         1 <0>         0.0631
     36 H3         -0.5289    1.8773    0.9072 H         1 <0>         0.0560
     37 H4          0.5123   -0.3556   -0.8948 H         1 <0>         0.0974
     38 H5          0.2329   -0.1587    2.1386 H         1 <0>         0.0815
     39 H6          2.6948   -0.3577    0.3442 H         1 <0>         0.0706
     40 H7          2.1668    1.1049    1.2099 H         1 <0>         0.0763
     41 H8          3.9266   -0.0699    2.4873 H         1 <0>         0.0816
     42 H9          2.3814   -0.1124    3.3709 H         1 <0>         0.0691
     43 H10         3.5618   -2.3463    1.6559 H         1 <0>         0.0727
     44 H11         3.3873   -2.3443    3.4299 H         1 <0>         0.0876
     45 H12        -0.2526   -2.4227    1.3422 H         1 <0>         0.0925
     46 H13         1.1900   -2.3974    0.2956 H         1 <0>         0.0674
     47 H14         2.8451   -4.3525    4.0045 H         1 <0>         0.1027
     48 H15         2.2425   -3.0095    5.0054 H         1 <0>         0.1030
     49 H16         0.3649   -3.3296    6.5141 H         1 <0>         0.1182
     50 H17        -0.9083   -4.9263    7.8900 H         1 <0>         0.1223
     51 H18        -0.8155   -7.3344    7.3847 H         1 <0>         0.1219
     52 H19         0.5498   -8.1459    5.5030 H         1 <0>         0.1223
     53 H20         1.8163   -6.5484    4.1220 H         1 <0>         0.1184
     54 H21        -1.7940   -0.7522    0.8520 H         1 <0>         0.4142
     55 H22        -1.6181   -0.1625   -4.3926 H         1 <0>         0.1788
     56 H23        -3.9500   -1.0090   -4.4130 H         1 <0>         0.1507
     57 H24        -5.8648   -1.7242   -4.3370 H         1 <0>         0.2230
     58 H25        -4.7638   -1.8030    0.6011 H         1 <0>         0.1382
     59 H26        -6.4590   -2.5781    2.2017 H         1 <0>         0.1330
     60 H27        -8.6723   -3.3062    1.4144 H         1 <0>         0.1334
     61 H28        -9.2177   -3.2599   -0.9780 H         1 <0>         0.1336
@<TRIPOS>BOND
     1    1    2 1
     2    1   34 1
     3    1   35 1
     4    1   36 1
     5    2    3 1
     6    2   18 1
     7    2   37 1
     8    3    8 1
     9    3    4 1
    10    3   38 1
    11    4    5 1
    12    4   39 1
    13    4   40 1
    14    5    6 1
    15    5   41 1
    16    5   42 1
    17    6    7 1
    18    6   43 1
    19    6   44 1
    20    7    8 1
    21    7    9 am
    22    8   45 1
    23    8   46 1
    24    9   10 2
    25    9   11 1
    26   11   12 1
    27   11   47 1
    28   11   48 1
    29   12   17 ar
    30   12   13 ar
    31   13   14 ar
    32   13   49 1
    33   14   15 ar
    34   14   50 1
    35   15   16 ar
    36   15   51 1
    37   16   17 ar
    38   16   52 1
    39   17   53 1
    40   18   19 1
    41   18   54 1
    42   19   24 ar
    43   19   20 ar
    44   20   21 ar
    45   21   22 ar
    46   21   55 1
    47   22   23 ar
    48   22   56 1
    49   23   24 ar
    50   23   25 1
    51   25   29 1
    52   25   26 1
    53   26   27 2
    54   26   57 1
    55   27   28 1
    56   28   33 ar
    57   28   29 ar
    58   29   30 ar
    59   30   31 ar
    60   30   58 1
    61   31   32 ar
    62   31   59 1
    63   32   33 ar
    64   32   60 1
    65   33   61 1
@<TRIPOS>MOLECULE
CHEMBL567669__3
   61    65     0     0     0
SMALL
USER_CHARGES

@<TRIPOS>ATOM
      1 C1         -0.0187    1.5258    0.0104 C.3       1 <0>        -0.1689
      2 C2          0.0021   -0.0041    0.0020 C.3       1 <0>         0.1668
      3 C3          0.7421   -0.5109    1.2415 C.3       1 <0>        -0.1104
      4 C4          2.1768    0.0218    1.2334 C.3       1 <0>        -0.1133
      5 C5          2.9276   -0.5113    2.4557 C.3       1 <0>        -0.1357
      6 C6          2.2358   -0.0176    3.7303 C.3       1 <0>         0.1034
      7 N1          0.8185   -0.4013    3.6780 N.am      1 <0>        -0.6146
      8 C7          0.0255   -0.0172    2.5023 C.3       1 <0>         0.1121
      9 C8          0.2567   -1.0929    4.6892 C.2       1 <0>         0.5167
     10 O1         -0.9144   -1.4038    4.6342 O.2       1 <0>        -0.5265
     11 C9          1.0834   -1.4800    5.8882 C.3       1 <0>        -0.1005
     12 C10         0.2250   -2.2402    6.8661 C.ar      1 <0>        -0.0705
     13 C11        -0.4711   -1.5608    7.8483 C.ar      1 <0>        -0.1051
     14 C12        -1.2585   -2.2581    8.7453 C.ar      1 <0>        -0.1184
     15 C13        -1.3501   -3.6348    8.6598 C.ar      1 <0>        -0.1183
     16 C14        -0.6547   -4.3141    7.6771 C.ar      1 <0>        -0.1185
     17 C15         0.1293   -3.6164    6.7774 C.ar      1 <0>        -0.1053
     18 N2         -1.3723   -0.5112    0.0124 N.pl3     1 <0>        -0.6901
     19 C16        -2.0691   -0.6463   -1.1758 C.ar      1 <0>         0.6015
     20 N3         -1.4755   -0.3173   -2.3138 N.ar      1 <0>        -0.5747
     21 C17        -2.1101   -0.4334   -3.4702 C.ar      1 <0>         0.2225
     22 C18        -3.4099   -0.9051   -3.4836 C.ar      1 <0>        -0.3085
     23 C19        -4.0076   -1.2430   -2.2700 C.ar      1 <0>         0.4503
     24 N4         -3.3107   -1.1063   -1.1475 N.ar      1 <0>        -0.5919
     25 N5         -5.3157   -1.7219   -2.2357 N.pl3     1 <0>        -0.4406
     26 C20        -6.1340   -1.9190   -3.3094 C.2       1 <0>         0.2743
     27 N6         -7.2859   -2.3754   -2.9144 N.2       1 <0>        -0.4710
     28 C21        -7.2893   -2.5036   -1.5619 C.ar      1 <0>         0.0423
     29 C22        -6.0252   -2.0921   -1.1068 C.ar      1 <0>         0.0569
     30 C23        -5.7341   -2.1207    0.2490 C.ar      1 <0>        -0.0892
     31 C24        -6.6866   -2.5562    1.1462 C.ar      1 <0>        -0.1024
     32 C25        -7.9350   -2.9669    0.7019 C.ar      1 <0>        -0.1194
     33 C26        -8.2441   -2.9377   -0.6392 C.ar      1 <0>        -0.0667
     34 H1          1.0039    1.9031    0.0027 H         1 <0>         0.0724
     35 H2         -0.5459    1.8868   -0.8726 H         1 <0>         0.0632
     36 H3         -0.5289    1.8773    0.9072 H         1 <0>         0.0585
     37 H4          0.5123   -0.3556   -0.8948 H         1 <0>         0.0994
     38 H5          0.7581   -1.6008    1.2354 H         1 <0>         0.0822
     39 H6          2.6813   -0.3078    0.3251 H         1 <0>         0.0730
     40 H7          2.1598    1.1112    1.2642 H         1 <0>         0.0741
     41 H8          2.9236   -1.6011    2.4384 H         1 <0>         0.0689
     42 H9          3.9560   -0.1505    2.4369 H         1 <0>         0.0818
     43 H10         2.7060   -0.4738    4.6014 H         1 <0>         0.0879
     44 H11         2.3185    1.0674    3.7941 H         1 <0>         0.0733
     45 H12        -0.0721    1.0678    2.4660 H         1 <0>         0.0752
     46 H13        -0.9627   -0.4732    2.5632 H         1 <0>         0.0889
     47 H14         1.9144   -2.1089    5.5688 H         1 <0>         0.1029
     48 H15         1.4714   -0.5812    6.3675 H         1 <0>         0.1032
     49 H16        -0.3996   -0.4852    7.9151 H         1 <0>         0.1186
     50 H17        -1.8019   -1.7274    9.5131 H         1 <0>         0.1224
     51 H18        -1.9648   -4.1796    9.3611 H         1 <0>         0.1219
     52 H19        -0.7260   -5.3897    7.6105 H         1 <0>         0.1222
     53 H20         0.6697   -4.1467    6.0073 H         1 <0>         0.1180
     54 H21        -1.7940   -0.7522    0.8520 H         1 <0>         0.4139
     55 H22        -1.6181   -0.1625   -4.3926 H         1 <0>         0.1790
     56 H23        -3.9500   -1.0090   -4.4130 H         1 <0>         0.1509
     57 H24        -5.8648   -1.7242   -4.3370 H         1 <0>         0.2230
     58 H25        -4.7638   -1.8030    0.6011 H         1 <0>         0.1382
     59 H26        -6.4590   -2.5781    2.2017 H         1 <0>         0.1334
     60 H27        -8.6723   -3.3062    1.4144 H         1 <0>         0.1335
     61 H28        -9.2177   -3.2599   -0.9780 H         1 <0>         0.1336
@<TRIPOS>BOND
     1    1    2 1
     2    1   34 1
     3    1   35 1
     4    1   36 1
     5    2    3 1
     6    2   18 1
     7    2   37 1
     8    3    8 1
     9    3    4 1
    10    3   38 1
    11    4    5 1
    12    4   39 1
    13    4   40 1
    14    5    6 1
    15    5   41 1
    16    5   42 1
    17    6    7 1
    18    6   43 1
    19    6   44 1
    20    7    8 1
    21    7    9 am
    22    8   45 1
    23    8   46 1
    24    9   10 2
    25    9   11 1
    26   11   12 1
    27   11   47 1
    28   11   48 1
    29   12   17 ar
    30   12   13 ar
    31   13   14 ar
    32   13   49 1
    33   14   15 ar
    34   14   50 1
    35   15   16 ar
    36   15   51 1
    37   16   17 ar
    38   16   52 1
    39   17   53 1
    40   18   19 1
    41   18   54 1
    42   19   24 ar
    43   19   20 ar
    44   20   21 ar
    45   21   22 ar
    46   21   55 1
    47   22   23 ar
    48   22   56 1
    49   23   24 ar
    50   23   25 1
    51   25   29 1
    52   25   26 1
    53   26   27 2
    54   26   57 1
    55   27   28 1
    56   28   33 ar
    57   28   29 ar
    58   29   30 ar
    59   30   31 ar
    60   30   58 1
    61   31   32 ar
    62   31   59 1
    63   32   33 ar
    64   32   60 1
    65   33   61 1
@<TRIPOS>MOLECULE
CHEMBL567880
   59    63     0     0     0
SMALL
USER_CHARGES

@<TRIPOS>ATOM
      1 C1          0.0158    1.4160   -0.0460 C.3       1 <0>        -0.1704
      2 C2         -0.0029   -0.1136   -0.0766 C.3       1 <0>         0.1677
      3 C3         -1.4511   -0.6066   -0.0476 C.3       1 <0>        -0.1124
      4 C4         -2.1670   -0.1641   -1.3258 C.3       1 <0>        -0.1136
      5 C5         -3.6061   -0.6846   -1.3128 C.3       1 <0>        -0.1353
      6 C6         -4.3490   -0.0904   -0.1121 C.3       1 <0>         0.1074
      7 N1         -3.5885   -0.3883    1.1092 N.am      1 <0>        -0.5898
      8 C7         -2.1695   -0.0114    1.1674 C.3       1 <0>         0.1267
      9 C8         -4.1813   -0.9953    2.1564 C.2       1 <0>         0.6481
     10 O1         -3.5414   -1.2362    3.1609 O.2       1 <0>        -0.5536
     11 O2         -5.4828   -1.3347    2.0894 O.3       1 <0>        -0.3059
     12 C9         -6.0138   -2.0353    3.1263 C.ar      1 <0>         0.1003
     13 C10        -6.2321   -3.3998    3.0035 C.ar      1 <0>        -0.1169
     14 C11        -6.7718   -4.1095    4.0587 C.ar      1 <0>        -0.1063
     15 C12        -7.0944   -3.4610    5.2365 C.ar      1 <0>        -0.1134
     16 C13        -6.8782   -2.1011    5.3612 C.ar      1 <0>        -0.1055
     17 C14        -6.3329   -1.3880    4.3111 C.ar      1 <0>        -0.1146
     18 N2          0.7136   -0.6342    1.0903 N.pl3     1 <0>        -0.6908
     19 C15         2.0890   -0.7825    1.0484 C.ar      1 <0>         0.6017
     20 N3          2.7421   -0.4434   -0.0536 N.ar      1 <0>        -0.5744
     21 C16         4.0578   -0.5707   -0.1307 C.ar      1 <0>         0.2227
     22 C17         4.7541   -1.0649    0.9570 C.ar      1 <0>        -0.3080
     23 C18         4.0391   -1.4130    2.1024 C.ar      1 <0>         0.4503
     24 N4          2.7203   -1.2546    2.1126 N.ar      1 <0>        -0.5919
     25 N5          4.6991   -1.9155    3.2220 N.pl3     1 <0>        -0.4406
     26 C19         6.0427   -2.1167    3.3471 C.2       1 <0>         0.2745
     27 N6          6.3140   -2.5964    4.5250 N.2       1 <0>        -0.4709
     28 C20         5.1665   -2.7372    5.2386 C.ar      1 <0>         0.0424
     29 C21         4.1149   -2.2979    4.4167 C.ar      1 <0>         0.0569
     30 C22         2.8109   -2.3213    4.8886 C.ar      1 <0>        -0.0893
     31 C23         2.5513   -2.7734    6.1654 C.ar      1 <0>        -0.1025
     32 C24         3.5862   -3.2049    6.9822 C.ar      1 <0>        -0.1194
     33 C25         4.8856   -3.1962    6.5277 C.ar      1 <0>        -0.0666
     34 H1          1.0475    1.7672   -0.0667 H         1 <0>         0.0647
     35 H2         -0.5173    1.8033   -0.9143 H         1 <0>         0.0730
     36 H3         -0.4694    1.7671    0.8647 H         1 <0>         0.0595
     37 H4          0.4822   -0.4648   -0.9873 H         1 <0>         0.1016
     38 H5         -1.4638   -1.6945    0.0190 H         1 <0>         0.0851
     39 H6         -2.1751    0.9246   -1.3792 H         1 <0>         0.0752
     40 H7         -1.6432   -0.5661   -2.1931 H         1 <0>         0.0752
     41 H8         -4.1082   -0.3890   -2.2340 H         1 <0>         0.0844
     42 H9         -3.5990   -1.7718   -1.2345 H         1 <0>         0.0694
     43 H10        -4.4360    0.9893   -0.2342 H         1 <0>         0.0757
     44 H11        -5.3423   -0.5335   -0.0412 H         1 <0>         0.0944
     45 H12        -1.7249   -0.4024    2.0826 H         1 <0>         0.0937
     46 H13        -2.0789    1.0747    1.1497 H         1 <0>         0.0838
     47 H14        -5.9806   -3.9067    2.0836 H         1 <0>         0.1300
     48 H15        -6.9422   -5.1717    3.9634 H         1 <0>         0.1328
     49 H16        -7.5162   -4.0176    6.0603 H         1 <0>         0.1301
     50 H17        -7.1313   -1.5967    6.2821 H         1 <0>         0.1317
     51 H18        -6.1598   -0.3267    4.4107 H         1 <0>         0.1275
     52 H19         0.2240   -0.8750    1.8923 H         1 <0>         0.4139
     53 H20         4.5814   -0.2921   -1.0332 H         1 <0>         0.1792
     54 H21         5.8274   -1.1790    0.9201 H         1 <0>         0.1510
     55 H22         6.7739   -1.9084    2.5801 H         1 <0>         0.2231
     56 H23         2.0008   -1.9860    4.2578 H         1 <0>         0.1383
     57 H24         1.5355   -2.7912    6.5319 H         1 <0>         0.1333
     58 H25         3.3701   -3.5564    7.9802 H         1 <0>         0.1335
     59 H26         5.6864   -3.5326    7.1695 H         1 <0>         0.1336
@<TRIPOS>BOND
     1    1    2 1
     2    1   34 1
     3    1   35 1
     4    1   36 1
     5    2    3 1
     6    2   18 1
     7    2   37 1
     8    3    8 1
     9    3    4 1
    10    3   38 1
    11    4    5 1
    12    4   39 1
    13    4   40 1
    14    5    6 1
    15    5   41 1
    16    5   42 1
    17    6    7 1
    18    6   43 1
    19    6   44 1
    20    7    8 1
    21    7    9 am
    22    8   45 1
    23    8   46 1
    24    9   10 2
    25    9   11 1
    26   11   12 1
    27   12   17 ar
    28   12   13 ar
    29   13   14 ar
    30   13   47 1
    31   14   15 ar
    32   14   48 1
    33   15   16 ar
    34   15   49 1
    35   16   17 ar
    36   16   50 1
    37   17   51 1
    38   18   19 1
    39   18   52 1
    40   19   24 ar
    41   19   20 ar
    42   20   21 ar
    43   21   22 ar
    44   21   53 1
    45   22   23 ar
    46   22   54 1
    47   23   24 ar
    48   23   25 1
    49   25   29 1
    50   25   26 1
    51   26   27 2
    52   26   55 1
    53   27   28 1
    54   28   33 ar
    55   28   29 ar
    56   29   30 ar
    57   30   31 ar
    58   30   56 1
    59   31   32 ar
    60   31   57 1
    61   32   33 ar
    62   32   58 1
    63   33   59 1
@<TRIPOS>MOLECULE
CHEMBL567880__1
   59    63     0     0     0
SMALL
USER_CHARGES

@<TRIPOS>ATOM
      1 C1          0.0782    1.4370   -0.0380 C.3       1 <0>        -0.1640
      2 C2          0.0662   -0.0927   -0.0646 C.3       1 <0>         0.1671
      3 C3         -1.3794   -0.5923   -0.0247 C.3       1 <0>        -0.1121
      4 C4         -2.1380   -0.0586   -1.2420 C.3       1 <0>        -0.1144
      5 C5         -3.5927   -0.5307   -1.1859 C.3       1 <0>        -0.1350
      6 C6         -3.6304   -2.0616   -1.2256 C.3       1 <0>         0.1069
      7 N1         -2.7844   -2.5838   -0.1438 N.am      1 <0>        -0.5904
      8 C7         -1.3920   -2.1239   -0.0513 C.3       1 <0>         0.1333
      9 C8         -3.2763   -3.4675    0.7470 C.2       1 <0>         0.6480
     10 O1         -2.5664   -3.8919    1.6372 O.2       1 <0>        -0.5530
     11 O2         -4.5547   -3.8801    0.6505 O.3       1 <0>        -0.3063
     12 C9         -4.9795   -4.8472    1.5062 C.ar      1 <0>         0.1003
     13 C10        -5.1150   -6.1552    1.0644 C.ar      1 <0>        -0.1170
     14 C11        -5.5469   -7.1362    1.9359 C.ar      1 <0>        -0.1062
     15 C12        -5.8440   -6.8152    3.2476 C.ar      1 <0>        -0.1135
     16 C13        -5.7102   -5.5122    3.6902 C.ar      1 <0>        -0.1056
     17 C14        -5.2727   -4.5288    2.8242 C.ar      1 <0>        -0.1146
     18 N2          0.7929   -0.6071    1.0989 N.pl3     1 <0>        -0.6903
     19 C15         2.1687   -0.7491    1.0481 C.ar      1 <0>         0.6019
     20 N3          2.8128   -0.4099   -0.0590 N.ar      1 <0>        -0.5744
     21 C16         4.1286   -0.5314   -0.1445 C.ar      1 <0>         0.2226
     22 C17         4.8344   -1.0196    0.9397 C.ar      1 <0>        -0.3080
     23 C18         4.1286   -1.3680    2.0907 C.ar      1 <0>         0.4504
     24 N4          2.8092   -1.2156    2.1093 N.ar      1 <0>        -0.5914
     25 N5          4.7984   -1.8646    3.2071 N.pl3     1 <0>        -0.4406
     26 C19         6.1437   -2.0593    3.3238 C.2       1 <0>         0.2746
     27 N6          6.4250   -2.5348    4.5010 N.2       1 <0>        -0.4710
     28 C20         5.2830   -2.6789    5.2226 C.ar      1 <0>         0.0425
     29 C21         4.2239   -2.2466    4.4067 C.ar      1 <0>         0.0571
     30 C22         2.9232   -2.2748    4.8873 C.ar      1 <0>        -0.0889
     31 C23         2.6742   -2.7248    6.1669 C.ar      1 <0>        -0.1028
     32 C24         3.7165   -3.1495    6.9779 C.ar      1 <0>        -0.1195
     33 C25         5.0128   -3.1359    6.5147 C.ar      1 <0>        -0.0666
     34 H1          1.1080    1.7928   -0.0664 H         1 <0>         0.0641
     35 H2         -0.4625    1.8196   -0.9037 H         1 <0>         0.0725
     36 H3         -0.4026    1.7882    0.8750 H         1 <0>         0.0565
     37 H4          0.5469   -0.4440   -0.9776 H         1 <0>         0.0989
     38 H5         -1.8609   -0.2403    0.8876 H         1 <0>         0.0841
     39 H6         -2.1094    1.0310   -1.2387 H         1 <0>         0.0785
     40 H7         -1.6703   -0.4311   -2.1533 H         1 <0>         0.0725
     41 H8         -4.0539   -0.1793   -0.2629 H         1 <0>         0.0698
     42 H9         -4.1381   -0.1310   -2.0407 H         1 <0>         0.0842
     43 H10        -4.6553   -2.4056   -1.0864 H         1 <0>         0.0942
     44 H11        -3.2526   -2.4116   -2.1863 H         1 <0>         0.0752
     45 H12        -0.8317   -2.4790   -0.9162 H         1 <0>         0.0759
     46 H13        -0.9400   -2.5090    0.8627 H         1 <0>         0.0970
     47 H14        -4.8833   -6.4063    0.0399 H         1 <0>         0.1304
     48 H15        -5.6528   -8.1546    1.5923 H         1 <0>         0.1329
     49 H16        -6.1815   -7.5835    3.9274 H         1 <0>         0.1301
     50 H17        -5.9432   -5.2639    4.7151 H         1 <0>         0.1316
     51 H18        -5.1638   -3.5120    3.1716 H         1 <0>         0.1271
     52 H19         0.3098   -0.8481    1.9047 H         1 <0>         0.4144
     53 H20         4.6448   -0.2526   -1.0513 H         1 <0>         0.1791
     54 H21         5.9079   -1.1288    0.8959 H         1 <0>         0.1508
     55 H22         6.8688   -1.8497    2.5514 H         1 <0>         0.2230
     56 H23         2.1074   -1.9448    4.2611 H         1 <0>         0.1383
     57 H24         1.6610   -2.7464    6.5403 H         1 <0>         0.1329
     58 H25         3.5086   -3.4994    7.9783 H         1 <0>         0.1334
     59 H26         5.8194   -3.4671    7.1521 H         1 <0>         0.1336
@<TRIPOS>BOND
     1    1    2 1
     2    1   34 1
     3    1   35 1
     4    1   36 1
     5    2    3 1
     6    2   18 1
     7    2   37 1
     8    3    8 1
     9    3    4 1
    10    3   38 1
    11    4    5 1
    12    4   39 1
    13    4   40 1
    14    5    6 1
    15    5   41 1
    16    5   42 1
    17    6    7 1
    18    6   43 1
    19    6   44 1
    20    7    8 1
    21    7    9 am
    22    8   45 1
    23    8   46 1
    24    9   10 2
    25    9   11 1
    26   11   12 1
    27   12   17 ar
    28   12   13 ar
    29   13   14 ar
    30   13   47 1
    31   14   15 ar
    32   14   48 1
    33   15   16 ar
    34   15   49 1
    35   16   17 ar
    36   16   50 1
    37   17   51 1
    38   18   19 1
    39   18   52 1
    40   19   24 ar
    41   19   20 ar
    42   20   21 ar
    43   21   22 ar
    44   21   53 1
    45   22   23 ar
    46   22   54 1
    47   23   24 ar
    48   23   25 1
    49   25   29 1
    50   25   26 1
    51   26   27 2
    52   26   55 1
    53   27   28 1
    54   28   33 ar
    55   28   29 ar
    56   29   30 ar
    57   30   31 ar
    58   30   56 1
    59   31   32 ar
    60   31   57 1
    61   32   33 ar
    62   32   58 1
    63   33   59 1
@<TRIPOS>MOLECULE
CHEMBL567880__2
   59    63     0     0     0
SMALL
USER_CHARGES

@<TRIPOS>ATOM
      1 C1          0.0250    1.6265    0.1202 C.3       1 <0>        -0.1640
      2 C2          0.0084    0.0968    0.0914 C.3       1 <0>         0.1670
      3 C3          0.7610   -0.4443    1.3087 C.3       1 <0>        -0.1118
      4 C4          2.2099    0.0473    1.2735 C.3       1 <0>        -0.1145
      5 C5          2.9548   -0.4664    2.5077 C.3       1 <0>        -0.1348
      6 C6          2.9635   -1.9983    2.4931 C.3       1 <0>         0.1068
      7 N1          1.5793   -2.4780    2.3806 N.am      1 <0>        -0.5904
      8 C7          0.7448   -1.9759    1.2804 C.3       1 <0>         0.1333
      9 C8          1.0846   -3.3621    3.2694 C.2       1 <0>         0.6480
     10 O1         -0.0619   -3.7512    3.1655 O.2       1 <0>        -0.5531
     11 O2          1.8609   -3.8144    4.2727 O.3       1 <0>        -0.3063
     12 C9          1.2921   -4.6250    5.2040 C.ar      1 <0>         0.1004
     13 C10         0.9502   -4.1191    6.4497 C.ar      1 <0>        -0.1169
     14 C11         0.3724   -4.9449    7.3944 C.ar      1 <0>        -0.1063
     15 C12         0.1348   -6.2746    7.0994 C.ar      1 <0>        -0.1135
     16 C13         0.4751   -6.7813    5.8587 C.ar      1 <0>        -0.1054
     17 C14         1.0475   -5.9581    4.9084 C.ar      1 <0>        -0.1148
     18 N2         -1.3774   -0.3773    0.1236 N.pl3     1 <0>        -0.6903
     19 C15        -2.1013   -0.4795   -1.0515 C.ar      1 <0>         0.6020
     20 N3         -1.5231   -0.1495   -2.1973 N.ar      1 <0>        -0.5745
     21 C16        -2.1838   -0.2348   -3.3416 C.ar      1 <0>         0.2226
     22 C17        -3.4946   -0.6749   -3.3344 C.ar      1 <0>        -0.3081
     23 C18        -4.0755   -1.0148   -2.1131 C.ar      1 <0>         0.4505
     24 N4         -3.3528   -0.9100   -1.0036 N.ar      1 <0>        -0.5914
     25 N5         -5.3938   -1.4626   -2.0580 N.pl3     1 <0>        -0.4406
     26 C19        -6.2385   -1.6255   -3.1170 C.2       1 <0>         0.2746
     27 N6         -7.3928   -2.0594   -2.7043 N.2       1 <0>        -0.4710
     28 C20        -7.3717   -2.2058   -1.3538 C.ar      1 <0>         0.0424
     29 C21        -6.0890   -1.8310   -0.9196 C.ar      1 <0>         0.0571
     30 C22        -5.7711   -1.8848    0.4293 C.ar      1 <0>        -0.0889
     31 C23        -6.7155   -2.3095    1.3403 C.ar      1 <0>        -0.1028
     32 C24        -7.9822   -2.6841    0.9166 C.ar      1 <0>        -0.1195
     33 C25        -8.3178   -2.6294   -0.4173 C.ar      1 <0>        -0.0666
     34 H1          1.0560    1.9792    0.0962 H         1 <0>         0.0726
     35 H2         -0.5112    2.0120   -0.7470 H         1 <0>         0.0639
     36 H3         -0.4582    1.9780    1.0319 H         1 <0>         0.0566
     37 H4          0.4916   -0.2546   -0.8203 H         1 <0>         0.0992
     38 H5          0.2789   -0.0921    2.2206 H         1 <0>         0.0841
     39 H6          2.6982   -0.3258    0.3732 H         1 <0>         0.0725
     40 H7          2.2235    1.1372    1.2686 H         1 <0>         0.0785
     41 H8          3.9800   -0.0967    2.4940 H         1 <0>         0.0842
     42 H9          2.4525   -0.1141    3.4086 H         1 <0>         0.0697
     43 H10         3.5433   -2.3523    1.6407 H         1 <0>         0.0751
     44 H11         3.4050   -2.3700    3.4177 H         1 <0>         0.0942
     45 H12        -0.2775   -2.3329    1.4049 H         1 <0>         0.0969
     46 H13         1.1437   -2.3281    0.3291 H         1 <0>         0.0756
     47 H14         1.1359   -3.0806    6.6807 H         1 <0>         0.1301
     48 H15         0.1064   -4.5516    8.3644 H         1 <0>         0.1329
     49 H16        -0.3170   -6.9186    7.8393 H         1 <0>         0.1301
     50 H17         0.2888   -7.8204    5.6307 H         1 <0>         0.1316
     51 H18         1.3087   -6.3532    3.9378 H         1 <0>         0.1272
     52 H19        -1.7876   -0.6195    0.9686 H         1 <0>         0.4144
     53 H20        -1.7043    0.0368   -4.2704 H         1 <0>         0.1790
     54 H21        -4.0559   -0.7532   -4.2537 H         1 <0>         0.1508
     55 H22        -5.9855   -1.4233   -4.1474 H         1 <0>         0.2231
     56 H23        -4.7865   -1.5953    0.7655 H         1 <0>         0.1383
     57 H24        -6.4670   -2.3511    2.3905 H         1 <0>         0.1329
     58 H25        -8.7129   -3.0152    1.6397 H         1 <0>         0.1334
     59 H26        -9.3056   -2.9235   -0.7401 H         1 <0>         0.1336
@<TRIPOS>BOND
     1    1    2 1
     2    1   34 1
     3    1   35 1
     4    1   36 1
     5    2    3 1
     6    2   18 1
     7    2   37 1
     8    3    8 1
     9    3    4 1
    10    3   38 1
    11    4    5 1
    12    4   39 1
    13    4   40 1
    14    5    6 1
    15    5   41 1
    16    5   42 1
    17    6    7 1
    18    6   43 1
    19    6   44 1
    20    7    8 1
    21    7    9 am
    22    8   45 1
    23    8   46 1
    24    9   10 2
    25    9   11 1
    26   11   12 1
    27   12   17 ar
    28   12   13 ar
    29   13   14 ar
    30   13   47 1
    31   14   15 ar
    32   14   48 1
    33   15   16 ar
    34   15   49 1
    35   16   17 ar
    36   16   50 1
    37   17   51 1
    38   18   19 1
    39   18   52 1
    40   19   24 ar
    41   19   20 ar
    42   20   21 ar
    43   21   22 ar
    44   21   53 1
    45   22   23 ar
    46   22   54 1
    47   23   24 ar
    48   23   25 1
    49   25   29 1
    50   25   26 1
    51   26   27 2
    52   26   55 1
    53   27   28 1
    54   28   33 ar
    55   28   29 ar
    56   29   30 ar
    57   30   31 ar
    58   30   56 1
    59   31   32 ar
    60   31   57 1
    61   32   33 ar
    62   32   58 1
    63   33   59 1
@<TRIPOS>MOLECULE
CHEMBL567880__3
   59    63     0     0     0
SMALL
USER_CHARGES

@<TRIPOS>ATOM
      1 C1         -0.0254    1.6381    0.0709 C.3       1 <0>        -0.1700
      2 C2         -0.0460    0.1085    0.0398 C.3       1 <0>         0.1675
      3 C3          0.6987   -0.4365    1.2601 C.3       1 <0>        -0.1123
      4 C4          2.1470    0.0576    1.2374 C.3       1 <0>        -0.1142
      5 C5          2.9016   -0.5136    2.4400 C.3       1 <0>        -0.1356
      6 C6          2.2428   -0.0209    3.7323 C.3       1 <0>         0.1074
      7 N1          0.8150   -0.3657    3.6965 N.am      1 <0>        -0.5895
      8 C7          0.0149    0.0571    2.5390 C.3       1 <0>         0.1272
      9 C8          0.2501   -1.0572    4.7060 C.2       1 <0>         0.6480
     10 O1         -0.9319   -1.3363    4.6646 O.2       1 <0>        -0.5535
     11 O2          0.9956   -1.4388    5.7607 O.3       1 <0>        -0.3058
     12 C9          0.3653   -2.0441    6.8020 C.ar      1 <0>         0.1002
     13 C10         0.1009   -1.3321    7.9629 C.ar      1 <0>        -0.1167
     14 C11        -0.5396   -1.9495    9.0197 C.ar      1 <0>        -0.1062
     15 C12        -0.9172   -3.2760    8.9212 C.ar      1 <0>        -0.1133
     16 C13        -0.6544   -3.9879    7.7654 C.ar      1 <0>        -0.1055
     17 C14        -0.0196   -3.3732    6.7035 C.ar      1 <0>        -0.1146
     18 N2         -1.4333   -0.3617    0.0641 N.pl3     1 <0>        -0.6912
     19 C15        -2.1514   -0.4602   -1.1149 C.ar      1 <0>         0.6016
     20 N3         -1.5664   -0.1302   -2.2571 N.ar      1 <0>        -0.5744
     21 C16        -2.2214   -0.2119   -3.4050 C.ar      1 <0>         0.2226
     22 C17        -3.5335   -0.6483   -3.4052 C.ar      1 <0>        -0.3080
     23 C18        -4.1216   -0.9884   -2.1875 C.ar      1 <0>         0.4504
     24 N4         -3.4043   -0.8872   -1.0741 N.ar      1 <0>        -0.5919
     25 N5         -5.4415   -1.4326   -2.1398 N.pl3     1 <0>        -0.4407
     26 C19        -6.2811   -1.5915   -3.2034 C.2       1 <0>         0.2744
     27 N6         -7.4387   -2.0228   -2.7973 N.2       1 <0>        -0.4709
     28 C20        -7.4250   -2.1712   -1.4469 C.ar      1 <0>         0.0423
     29 C21        -6.1436   -1.8006   -1.0056 C.ar      1 <0>         0.0569
     30 C22        -5.8328   -1.8574    0.3449 C.ar      1 <0>        -0.0892
     31 C23        -6.7830   -2.2807    1.2504 C.ar      1 <0>        -0.1025
     32 C24        -8.0486   -2.6511    0.8196 C.ar      1 <0>        -0.1194
     33 C25        -8.3771   -2.5935   -0.5160 C.ar      1 <0>        -0.0666
     34 H1          1.0068    1.9879    0.0528 H         1 <0>         0.0736
     35 H2         -0.5559    2.0264   -0.7984 H         1 <0>         0.0644
     36 H3         -0.5122    1.9896    0.9806 H         1 <0>         0.0588
     37 H4          0.4408   -0.2430   -0.8699 H         1 <0>         0.1017
     38 H5          0.6853   -1.5262    1.2377 H         1 <0>         0.0849
     39 H6          2.6286   -0.2716    0.3167 H         1 <0>         0.0754
     40 H7          2.1599    1.1466    1.2845 H         1 <0>         0.0758
     41 H8          2.8679   -1.6026    2.4068 H         1 <0>         0.0695
     42 H9          3.9389   -0.1802    2.4104 H         1 <0>         0.0844
     43 H10         2.7137   -0.5025    4.5892 H         1 <0>         0.0945
     44 H11         2.3557    1.0605    3.8106 H         1 <0>         0.0758
     45 H12        -0.0539    1.1448    2.5200 H         1 <0>         0.0832
     46 H13        -0.9841   -0.3731    2.6086 H         1 <0>         0.0935
     47 H14         0.3959   -0.2961    8.0405 H         1 <0>         0.1305
     48 H15        -0.7454   -1.3957    9.9238 H         1 <0>         0.1330
     49 H16        -1.4178   -3.7569    9.7485 H         1 <0>         0.1301
     50 H17        -0.9499   -5.0240    7.6909 H         1 <0>         0.1315
     51 H18         0.1812   -3.9284    5.7991 H         1 <0>         0.1270
     52 H19        -1.8486   -0.6040    0.9066 H         1 <0>         0.4137
     53 H20        -1.7363    0.0597   -4.3309 H         1 <0>         0.1792
     54 H21        -4.0903   -0.7237   -4.3275 H         1 <0>         0.1510
     55 H22        -6.0222   -1.3885   -4.2321 H         1 <0>         0.2231
     56 H23        -4.8491   -1.5711    0.6866 H         1 <0>         0.1383
     57 H24        -6.5401   -2.3246    2.3018 H         1 <0>         0.1334
     58 H25        -8.7839   -2.9812    1.5385 H         1 <0>         0.1335
     59 H26        -9.3641   -2.8844   -0.8442 H         1 <0>         0.1336
@<TRIPOS>BOND
     1    1    2 1
     2    1   34 1
     3    1   35 1
     4    1   36 1
     5    2    3 1
     6    2   18 1
     7    2   37 1
     8    3    8 1
     9    3    4 1
    10    3   38 1
    11    4    5 1
    12    4   39 1
    13    4   40 1
    14    5    6 1
    15    5   41 1
    16    5   42 1
    17    6    7 1
    18    6   43 1
    19    6   44 1
    20    7    8 1
    21    7    9 am
    22    8   45 1
    23    8   46 1
    24    9   10 2
    25    9   11 1
    26   11   12 1
    27   12   17 ar
    28   12   13 ar
    29   13   14 ar
    30   13   47 1
    31   14   15 ar
    32   14   48 1
    33   15   16 ar
    34   15   49 1
    35   16   17 ar
    36   16   50 1
    37   17   51 1
    38   18   19 1
    39   18   52 1
    40   19   24 ar
    41   19   20 ar
    42   20   21 ar
    43   21   22 ar
    44   21   53 1
    45   22   23 ar
    46   22   54 1
    47   23   24 ar
    48   23   25 1
    49   25   29 1
    50   25   26 1
    51   26   27 2
    52   26   55 1
    53   27   28 1
    54   28   33 ar
    55   28   29 ar
    56   29   30 ar
    57   30   31 ar
    58   30   56 1
    59   31   32 ar
    60   31   57 1
    61   32   33 ar
    62   32   58 1
    63   33   59 1
@<TRIPOS>MOLECULE
CHEMBL568101
   68    73     0     0     0
SMALL
USER_CHARGES

@<TRIPOS>ATOM
      1 C1          1.2741   -0.0819   -0.5982 C.3       1 <0>        -0.1521
      2 C2          0.7349   -1.4869   -0.8744 C.3       1 <0>         0.1681
      3 C3         -0.7369   -1.5584   -0.4627 C.3       1 <0>         0.0634
      4 C4         -1.2783   -2.9645   -0.7422 C.3       1 <0>         0.0994
      5 N1         -2.7257   -2.9683   -0.4808 N.am      1 <0>        -0.6256
      6 C5         -3.5498   -1.9269   -1.1130 C.3       1 <0>         0.0684
      7 C6         -2.9189   -0.5617   -0.8189 C.3       1 <0>         0.0426
      8 N2         -1.5102   -0.5769   -1.2351 N.3       1 <0>        -0.5197
      9 C7         -1.3901   -0.8293   -2.6773 C.3       1 <0>         0.0060
     10 C8         -3.2822   -3.9016    0.3165 C.2       1 <0>         0.7095
     11 O1         -2.6031   -4.8098    0.7551 O.2       1 <0>        -0.5640
     12 N3         -4.5915   -3.8282    0.6277 N.am      1 <0>        -0.6865
     13 C9         -5.1361   -4.7045    1.5725 C.ar      1 <0>         0.1765
     14 C10        -4.3598   -5.1188    2.6614 C.ar      1 <0>        -0.1123
     15 C11        -4.8629   -5.9694    3.5945 C.ar      1 <0>        -0.0853
     16 C12        -6.1805   -6.4445    3.4718 C.ar      1 <0>        -0.0651
     17 C13        -6.7273   -7.3243    4.4215 C.ar      1 <0>        -0.0992
     18 C14        -8.0064   -7.7655    4.2739 C.ar      1 <0>        -0.1229
     19 C15        -8.7858   -7.3585    3.1926 C.ar      1 <0>        -0.1103
     20 C16        -8.2904   -6.5075    2.2532 C.ar      1 <0>        -0.1124
     21 C17        -6.9735   -6.0301    2.3724 C.ar      1 <0>        -0.0290
     22 C18        -6.4319   -5.1461    1.4249 C.ar      1 <0>        -0.1460
     23 N4          1.5056   -2.4659   -0.1038 N.pl3     1 <0>        -0.6900
     24 C19         2.6926   -2.9658   -0.6105 C.ar      1 <0>         0.6039
     25 N5          3.1196   -2.5435   -1.7917 N.ar      1 <0>        -0.5741
     26 C20         4.2506   -2.9987   -2.3084 C.ar      1 <0>         0.2227
     27 C21         4.9917   -3.9272   -1.6009 C.ar      1 <0>        -0.3075
     28 C22         4.5165   -4.3522   -0.3608 C.ar      1 <0>         0.4508
     29 N6          3.3763   -3.8501    0.0998 N.ar      1 <0>        -0.5907
     30 N7          5.2301   -5.2868    0.3869 N.pl3     1 <0>        -0.4406
     31 C23         6.4128   -5.8704    0.0374 C.2       1 <0>         0.2746
     32 N8          6.7962   -6.6935    0.9683 N.2       1 <0>        -0.4709
     33 C24         5.8891   -6.6971    1.9797 C.ar      1 <0>         0.0425
     34 C25         4.8746   -5.7919    1.6252 C.ar      1 <0>         0.0572
     35 C26         3.8036   -5.5818    2.4811 C.ar      1 <0>        -0.0887
     36 C27         3.7399   -6.2608    3.6798 C.ar      1 <0>        -0.1027
     37 C28         4.7406   -7.1531    4.0362 C.ar      1 <0>        -0.1195
     38 C29         5.8068   -7.3800    3.1956 C.ar      1 <0>        -0.0666
     39 H1          2.3226   -0.0310   -0.8915 H         1 <0>         0.0587
     40 H2          0.7006    0.6465   -1.1716 H         1 <0>         0.0804
     41 H3          1.1830    0.1397    0.4651 H         1 <0>         0.0540
     42 H4          0.8260   -1.7085   -1.9378 H         1 <0>         0.0993
     43 H5         -0.8283   -1.3378    0.6008 H         1 <0>         0.0952
     44 H6         -1.0937   -3.2276   -1.7838 H         1 <0>         0.0713
     45 H7         -0.7861   -3.6833   -0.0872 H         1 <0>         0.1007
     46 H8         -3.5834   -2.0903   -2.1902 H         1 <0>         0.0777
     47 H9         -4.5592   -1.9597   -0.7031 H         1 <0>         0.0835
     48 H10        -3.4528    0.2121   -1.3705 H         1 <0>         0.0974
     49 H11        -2.9803   -0.3553    0.2496 H         1 <0>         0.0846
     50 H12        -1.7659   -1.8270   -2.9041 H         1 <0>         0.0334
     51 H13        -1.9721   -0.0884   -3.2255 H         1 <0>         0.0758
     52 H14        -0.3431   -0.7597   -2.9724 H         1 <0>         0.0784
     53 H15        -5.1562   -3.1678    0.1965 H         1 <0>         0.4057
     54 H16        -3.3469   -4.7577    2.7612 H         1 <0>         0.1344
     55 H17        -4.2515   -6.2802    4.4287 H         1 <0>         0.1317
     56 H18        -6.1353   -7.6490    5.2644 H         1 <0>         0.1273
     57 H19        -8.4235   -8.4415    5.0056 H         1 <0>         0.1232
     58 H20        -9.7977   -7.7241    3.0986 H         1 <0>         0.1233
     59 H21        -8.9057   -6.2008    1.4203 H         1 <0>         0.1261
     60 H22        -7.0260   -4.8182    0.5847 H         1 <0>         0.1291
     61 H23         1.1840   -2.7638    0.7614 H         1 <0>         0.4138
     62 H24         4.5902   -2.6489   -3.2721 H         1 <0>         0.1791
     63 H25         5.9174   -4.3147   -1.9999 H         1 <0>         0.1509
     64 H26         6.9515   -5.6772   -0.8784 H         1 <0>         0.2230
     65 H27         3.0218   -4.8879    2.2097 H         1 <0>         0.1383
     66 H28         2.9056   -6.0965    4.3456 H         1 <0>         0.1329
     67 H29         4.6794   -7.6785    4.9778 H         1 <0>         0.1333
     68 H30         6.5827   -8.0753    3.4801 H         1 <0>         0.1335
@<TRIPOS>BOND
     1    1    2 1
     2    1   39 1
     3    1   40 1
     4    1   41 1
     5    2    3 1
     6    2   23 1
     7    2   42 1
     8    3    8 1
     9    3    4 1
    10    3   43 1
    11    4    5 1
    12    4   44 1
    13    4   45 1
    14    5    6 1
    15    5   10 am
    16    6    7 1
    17    6   46 1
    18    6   47 1
    19    7    8 1
    20    7   48 1
    21    7   49 1
    22    8    9 1
    23    9   50 1
    24    9   51 1
    25    9   52 1
    26   10   11 2
    27   10   12 am
    28   12   13 1
    29   12   53 1
    30   13   22 ar
    31   13   14 ar
    32   14   15 ar
    33   14   54 1
    34   15   16 ar
    35   15   55 1
    36   16   21 ar
    37   16   17 ar
    38   17   18 ar
    39   17   56 1
    40   18   19 ar
    41   18   57 1
    42   19   20 ar
    43   19   58 1
    44   20   21 ar
    45   20   59 1
    46   21   22 ar
    47   22   60 1
    48   23   24 1
    49   23   61 1
    50   24   29 ar
    51   24   25 ar
    52   25   26 ar
    53   26   27 ar
    54   26   62 1
    55   27   28 ar
    56   27   63 1
    57   28   29 ar
    58   28   30 1
    59   30   34 1
    60   30   31 1
    61   31   32 2
    62   31   64 1
    63   32   33 1
    64   33   38 ar
    65   33   34 ar
    66   34   35 ar
    67   35   36 ar
    68   35   65 1
    69   36   37 ar
    70   36   66 1
    71   37   38 ar
    72   37   67 1
    73   38   68 1
@<TRIPOS>MOLECULE
CHEMBL568101__1
   69    74     0     0     0
SMALL
USER_CHARGES

@<TRIPOS>ATOM
      1 C1         -1.1785   -0.1032   -0.7674 C.3       1 <0>        -0.1857
      2 C2         -1.1045   -1.5062   -0.1616 C.3       1 <0>         0.1533
      3 C3         -0.0049   -1.5454    0.9015 C.3       1 <0>        -0.0009
      4 C4          0.0687   -2.9501    1.5090 C.3       1 <0>         0.1155
      5 N1          1.0388   -2.9298    2.6147 N.am      1 <0>        -0.6423
      6 C5          0.9041   -1.8795    3.6359 C.3       1 <0>         0.0820
      7 C6          0.7911   -0.5253    2.9280 C.3       1 <0>        -0.0204
      8 N2         -0.3098   -0.5718    1.9575 N.4       1 <0>        -0.3756
      9 C7         -1.5478   -0.9669    2.6426 C.3       1 <0>        -0.0704
     10 C8          2.0229   -3.8476    2.6902 C.2       1 <0>         0.7115
     11 O1          2.0635   -4.7626    1.8905 O.2       1 <0>        -0.5405
     12 N3          2.9619   -3.7513    3.6522 N.am      1 <0>        -0.6779
     13 C9          4.0655   -4.6109    3.6410 C.ar      1 <0>         0.1561
     14 C10         4.6063   -5.0281    2.4190 C.ar      1 <0>        -0.1173
     15 C11         5.6781   -5.8629    2.3781 C.ar      1 <0>        -0.0796
     16 C12         6.2578   -6.3183    3.5753 C.ar      1 <0>        -0.0601
     17 C13         7.3668   -7.1815    3.5636 C.ar      1 <0>        -0.1016
     18 C14         7.9047   -7.6039    4.7402 C.ar      1 <0>        -0.1143
     19 C15         7.3722   -7.1940    5.9612 C.ar      1 <0>        -0.1046
     20 C16         6.2989   -6.3588    6.0119 C.ar      1 <0>        -0.1130
     21 C17         5.7165   -5.9010    4.8171 C.ar      1 <0>        -0.0325
     22 C18         4.6121   -5.0335    4.8321 C.ar      1 <0>        -0.1317
     23 N4         -0.8001   -2.4776   -1.2151 N.pl3     1 <0>        -0.6952
     24 C19        -1.8216   -3.0076   -1.9839 C.ar      1 <0>         0.5976
     25 N5         -3.0685   -2.6209   -1.7568 N.ar      1 <0>        -0.5819
     26 C20        -4.0718   -3.1057   -2.4722 C.ar      1 <0>         0.2230
     27 C21        -3.8083   -4.0277   -3.4684 C.ar      1 <0>        -0.2913
     28 C22        -2.4861   -4.4150   -3.6836 C.ar      1 <0>         0.4595
     29 N6         -1.5281   -3.8846   -2.9319 N.ar      1 <0>        -0.5833
     30 N7         -2.1739   -5.3417   -4.6762 N.pl3     1 <0>        -0.4439
     31 C23        -3.0552   -5.9515   -5.5206 C.2       1 <0>         0.2737
     32 N8         -2.4216   -6.7573   -6.3207 N.2       1 <0>        -0.4618
     33 C24        -1.0911   -6.7225   -6.0478 C.ar      1 <0>         0.0440
     34 C25        -0.9114   -5.8109   -4.9938 C.ar      1 <0>         0.0542
     35 C26         0.3614   -5.5637   -4.5012 C.ar      1 <0>        -0.0925
     36 C27         1.4475   -6.2122   -5.0505 C.ar      1 <0>        -0.0991
     37 C28         1.2761   -7.1105   -6.0937 C.ar      1 <0>        -0.1173
     38 C29         0.0193   -7.3740   -6.5899 C.ar      1 <0>        -0.0610
     39 H1         -0.2213    0.1456   -1.2255 H         1 <0>         0.0760
     40 H2         -1.9619   -0.0754   -1.5247 H         1 <0>         0.0952
     41 H3         -1.4050    0.6195    0.0165 H         1 <0>         0.0639
     42 H4         -2.0618   -1.7551    0.2965 H         1 <0>         0.1190
     43 H5          0.9525   -1.2968    0.4434 H         1 <0>         0.1492
     44 H6         -0.9123   -3.2373    1.8877 H         1 <0>         0.0987
     45 H7          0.3939   -3.6611    0.7495 H         1 <0>         0.1382
     46 H8          0.0075   -2.0586    4.2294 H         1 <0>         0.1043
     47 H9          1.7815   -1.8827    4.2826 H         1 <0>         0.1224
     48 H10         0.5942    0.2542    3.6640 H         1 <0>         0.1521
     49 H11         1.7244   -0.3077    2.4087 H         1 <0>         0.1379
     50 H12        -1.4190   -1.9549    3.0846 H         1 <0>         0.1270
     51 H13        -1.7754   -0.2449    3.4268 H         1 <0>         0.1351
     52 H14        -2.3676   -0.9940    1.9247 H         1 <0>         0.1322
     53 H15         2.8725   -3.0858    4.3523 H         1 <0>         0.4046
     54 H16         4.1654   -4.6821    1.4958 H         1 <0>         0.1316
     55 H17         6.0837   -6.1761    1.4274 H         1 <0>         0.1340
     56 H18         7.7900   -7.5083    2.6252 H         1 <0>         0.1304
     57 H19         8.7569   -8.2672    4.7276 H         1 <0>         0.1275
     58 H20         7.8176   -7.5445    6.8805 H         1 <0>         0.1274
     59 H21         5.8965   -6.0495    6.9652 H         1 <0>         0.1283
     60 H22         4.1922   -4.7035    5.7708 H         1 <0>         0.1303
     61 H23         0.1174   -2.7494   -1.3738 H         1 <0>         0.4205
     62 H24        -5.0848   -2.7847   -2.2794 H         1 <0>         0.1843
     63 H25        -4.6084   -4.4388   -4.0660 H         1 <0>         0.1577
     64 H26        -4.1229   -5.7890   -5.5237 H         1 <0>         0.2251
     65 H27         0.5016   -4.8650   -3.6897 H         1 <0>         0.1352
     66 H28         2.4382   -6.0191   -4.6663 H         1 <0>         0.1339
     67 H29         2.1346   -7.6117   -6.5156 H         1 <0>         0.1365
     68 H30        -0.1065   -8.0738   -7.4029 H         1 <0>         0.1371
     69 H31        -0.4327    0.3413    1.5462 H         1 <0>         0.4298
@<TRIPOS>BOND
     1    1    2 1
     2    1   39 1
     3    1   40 1
     4    1   41 1
     5    2    3 1
     6    2   23 1
     7    2   42 1
     8    3    8 1
     9    3    4 1
    10    3   43 1
    11    4    5 1
    12    4   44 1
    13    4   45 1
    14    5    6 1
    15    5   10 am
    16    6    7 1
    17    6   46 1
    18    6   47 1
    19    7    8 1
    20    7   48 1
    21    7   49 1
    22    8    9 1
    23    8   69 1
    24    9   50 1
    25    9   51 1
    26    9   52 1
    27   10   11 2
    28   10   12 am
    29   12   13 1
    30   12   53 1
    31   13   22 ar
    32   13   14 ar
    33   14   15 ar
    34   14   54 1
    35   15   16 ar
    36   15   55 1
    37   16   21 ar
    38   16   17 ar
    39   17   18 ar
    40   17   56 1
    41   18   19 ar
    42   18   57 1
    43   19   20 ar
    44   19   58 1
    45   20   21 ar
    46   20   59 1
    47   21   22 ar
    48   22   60 1
    49   23   24 1
    50   23   61 1
    51   24   29 ar
    52   24   25 ar
    53   25   26 ar
    54   26   27 ar
    55   26   62 1
    56   27   28 ar
    57   27   63 1
    58   28   29 ar
    59   28   30 1
    60   30   34 1
    61   30   31 1
    62   31   32 2
    63   31   64 1
    64   32   33 1
    65   33   38 ar
    66   33   34 ar
    67   34   35 ar
    68   35   36 ar
    69   35   65 1
    70   36   37 ar
    71   36   66 1
    72   37   38 ar
    73   37   67 1
    74   38   68 1
@<TRIPOS>MOLECULE
CHEMBL568101__2
   68    73     0     0     0
SMALL
USER_CHARGES

@<TRIPOS>ATOM
      1 C1          0.5468   -0.3491    0.7819 C.3       1 <0>        -0.1586
      2 C2         -0.4821   -0.4553    1.9093 C.3       1 <0>         0.1674
      3 C3         -1.8262   -0.9045    1.3325 C.3       1 <0>         0.0624
      4 C4         -2.2915    0.1030    0.2758 C.3       1 <0>         0.1351
      5 N1         -3.5043   -0.4230   -0.3691 N.am      1 <0>        -0.6262
      6 C5         -3.4728   -1.7959   -0.8957 C.3       1 <0>         0.1128
      7 C6         -2.9609   -2.7286    0.2071 C.3       1 <0>         0.0402
      8 N2         -1.6754   -2.2269    0.7108 N.3       1 <0>        -0.5268
      9 C7         -1.0675   -3.1824    1.6465 C.3       1 <0>         0.0161
     10 C8         -4.6151    0.3330   -0.4743 C.2       1 <0>         0.7085
     11 O1         -4.5950    1.4958   -0.1197 O.2       1 <0>        -0.5664
     12 N3         -5.7482   -0.2001   -0.9726 N.am      1 <0>        -0.6865
     13 C9         -6.8768    0.6052   -1.1595 C.ar      1 <0>         0.1761
     14 C10        -6.7180    1.9420   -1.5438 C.ar      1 <0>        -0.1120
     15 C11        -7.7965    2.7473   -1.7326 C.ar      1 <0>        -0.0862
     16 C12        -9.0931    2.2386   -1.5412 C.ar      1 <0>        -0.0650
     17 C13       -10.2266    3.0477   -1.7296 C.ar      1 <0>        -0.0992
     18 C14       -11.4681    2.5245   -1.5366 C.ar      1 <0>        -0.1231
     19 C15       -11.6351    1.1950   -1.1534 C.ar      1 <0>        -0.1107
     20 C16       -10.5613    0.3813   -0.9616 C.ar      1 <0>        -0.1124
     21 C17        -9.2630    0.8862   -1.1520 C.ar      1 <0>        -0.0294
     22 C18        -8.1325    0.0733   -0.9689 C.ar      1 <0>        -0.1462
     23 N4         -0.6389    0.8518    2.5521 N.pl3     1 <0>        -0.6911
     24 C19         0.2691    1.2645    3.5115 C.ar      1 <0>         0.6035
     25 N5          1.2773    0.4668    3.8324 N.ar      1 <0>        -0.5739
     26 C20         2.1660    0.8277    4.7453 C.ar      1 <0>         0.2226
     27 C21         2.0347    2.0549    5.3686 C.ar      1 <0>        -0.3074
     28 C22         0.9634    2.8722    5.0097 C.ar      1 <0>         0.4508
     29 N6          0.1119    2.4492    4.0822 N.ar      1 <0>        -0.5911
     30 N7          0.7914    4.1169    5.6120 N.pl3     1 <0>        -0.4407
     31 C23         1.5939    4.6730    6.5649 C.2       1 <0>         0.2743
     32 N8          1.1395    5.8435    6.9031 N.2       1 <0>        -0.4707
     33 C24         0.0152    6.1219    6.1930 C.ar      1 <0>         0.0423
     34 C25        -0.2219    5.0224    5.3509 C.ar      1 <0>         0.0569
     35 C26        -1.3136    5.0279    4.4954 C.ar      1 <0>        -0.0892
     36 C27        -2.1616    6.1152    4.4721 C.ar      1 <0>        -0.1022
     37 C28        -1.9301    7.2049    5.2989 C.ar      1 <0>        -0.1193
     38 C29        -0.8561    7.2134    6.1600 C.ar      1 <0>        -0.0666
     39 H1          1.5043   -0.0291    1.1928 H         1 <0>         0.0611
     40 H2          0.6634   -1.3216    0.3037 H         1 <0>         0.0804
     41 H3          0.2056    0.3790    0.0461 H         1 <0>         0.0575
     42 H4         -0.1409   -1.1835    2.6452 H         1 <0>         0.0994
     43 H5         -2.5647   -0.9607    2.1322 H         1 <0>         0.0544
     44 H6         -2.5150    1.0571    0.7530 H         1 <0>         0.0951
     45 H7         -1.5090    0.2382   -0.4709 H         1 <0>         0.0866
     46 H8         -4.4772   -2.0971   -1.1930 H         1 <0>         0.0809
     47 H9         -2.8038   -1.8432   -1.7550 H         1 <0>         0.0864
     48 H10        -3.6839   -2.7593    1.0222 H         1 <0>         0.0419
     49 H11        -2.8264   -3.7315   -0.1981 H         1 <0>         0.0963
     50 H12        -1.6432   -3.2009    2.5719 H         1 <0>         0.0293
     51 H13        -1.0652   -4.1767    1.2001 H         1 <0>         0.0747
     52 H14        -0.0432   -2.8784    1.8619 H         1 <0>         0.0797
     53 H15        -5.7813   -1.1420   -1.2017 H         1 <0>         0.4058
     54 H16        -5.7247    2.3390   -1.6921 H         1 <0>         0.1371
     55 H17        -7.6577    3.7766   -2.0287 H         1 <0>         0.1316
     56 H18       -10.1130    4.0801   -2.0259 H         1 <0>         0.1272
     57 H19       -12.3370    3.1491   -1.6823 H         1 <0>         0.1230
     58 H20       -12.6314    0.8048   -1.0061 H         1 <0>         0.1230
     59 H21       -10.7056   -0.6469   -0.6643 H         1 <0>         0.1258
     60 H22        -8.2470   -0.9602   -0.6770 H         1 <0>         0.1288
     61 H23        -1.3792    1.4279    2.3052 H         1 <0>         0.4137
     62 H24         2.9842    0.1705    5.0005 H         1 <0>         0.1793
     63 H25         2.7456    2.3731    6.1168 H         1 <0>         0.1512
     64 H26         2.4771    4.2088    6.9782 H         1 <0>         0.2230
     65 H27        -1.4989    4.1829    3.8487 H         1 <0>         0.1383
     66 H28        -3.0114    6.1186    3.8056 H         1 <0>         0.1336
     67 H29        -2.6012    8.0506    5.2712 H         1 <0>         0.1335
     68 H30        -0.6814    8.0656    6.8000 H         1 <0>         0.1336
@<TRIPOS>BOND
     1    1    2 1
     2    1   39 1
     3    1   40 1
     4    1   41 1
     5    2    3 1
     6    2   23 1
     7    2   42 1
     8    3    8 1
     9    3    4 1
    10    3   43 1
    11    4    5 1
    12    4   44 1
    13    4   45 1
    14    5    6 1
    15    5   10 am
    16    6    7 1
    17    6   46 1
    18    6   47 1
    19    7    8 1
    20    7   48 1
    21    7   49 1
    22    8    9 1
    23    9   50 1
    24    9   51 1
    25    9   52 1
    26   10   11 2
    27   10   12 am
    28   12   13 1
    29   12   53 1
    30   13   22 ar
    31   13   14 ar
    32   14   15 ar
    33   14   54 1
    34   15   16 ar
    35   15   55 1
    36   16   21 ar
    37   16   17 ar
    38   17   18 ar
    39   17   56 1
    40   18   19 ar
    41   18   57 1
    42   19   20 ar
    43   19   58 1
    44   20   21 ar
    45   20   59 1
    46   21   22 ar
    47   22   60 1
    48   23   24 1
    49   23   61 1
    50   24   29 ar
    51   24   25 ar
    52   25   26 ar
    53   26   27 ar
    54   26   62 1
    55   27   28 ar
    56   27   63 1
    57   28   29 ar
    58   28   30 1
    59   30   34 1
    60   30   31 1
    61   31   32 2
    62   31   64 1
    63   32   33 1
    64   33   38 ar
    65   33   34 ar
    66   34   35 ar
    67   35   36 ar
    68   35   65 1
    69   36   37 ar
    70   36   66 1
    71   37   38 ar
    72   37   67 1
    73   38   68 1
@<TRIPOS>MOLECULE
CHEMBL568101__3
   69    74     0     0     0
SMALL
USER_CHARGES

@<TRIPOS>ATOM
      1 C1         -0.7651   -0.0317    0.1293 C.3       1 <0>        -0.1941
      2 C2         -0.7060   -1.4020    0.8074 C.3       1 <0>         0.1534
      3 C3          0.3001   -1.3581    1.9592 C.3       1 <0>         0.0011
      4 C4          1.7068   -1.1207    1.4000 C.3       1 <0>         0.1078
      5 N1          2.6350   -0.9521    2.5288 N.am      1 <0>        -0.6418
      6 C5          2.2771    0.0094    3.5830 C.3       1 <0>         0.0836
      7 C6          0.8435   -0.2814    4.0392 C.3       1 <0>        -0.0204
      8 N2         -0.0520   -0.2661    2.8755 N.4       1 <0>        -0.3785
      9 C7         -1.4400   -0.4355    3.3258 C.3       1 <0>        -0.0589
     10 C8          3.7807   -1.6589    2.5954 C.2       1 <0>         0.7119
     11 O1          4.0135   -2.5187    1.7678 O.2       1 <0>        -0.5423
     12 N3          4.6682   -1.4125    3.5792 N.am      1 <0>        -0.6771
     13 C9          5.9198   -2.0373    3.5648 C.ar      1 <0>         0.1568
     14 C10         6.5511   -2.2956    2.3422 C.ar      1 <0>        -0.1172
     15 C11         7.7671   -2.9012    2.2982 C.ar      1 <0>        -0.0791
     16 C12         8.4067   -3.2766    3.4926 C.ar      1 <0>        -0.0600
     17 C13         9.6643   -3.9037    3.4776 C.ar      1 <0>        -0.1011
     18 C14        10.2569   -4.2542    4.6516 C.ar      1 <0>        -0.1147
     19 C15         9.6352   -4.0012    5.8731 C.ar      1 <0>        -0.1047
     20 C16         8.4176   -3.3959    5.9270 C.ar      1 <0>        -0.1134
     21 C17         7.7747   -3.0189    4.7349 C.ar      1 <0>        -0.0326
     22 C18         6.5207   -2.3867    4.7534 C.ar      1 <0>        -0.1326
     23 N4         -0.2879   -2.4119   -0.1680 N.pl3     1 <0>        -0.6958
     24 C19        -1.2263   -3.0080   -0.9924 C.ar      1 <0>         0.5970
     25 N5         -2.4977   -2.6490   -0.8895 N.ar      1 <0>        -0.5818
     26 C20        -3.4236   -3.1968   -1.6614 C.ar      1 <0>         0.2230
     27 C21        -3.0524   -4.1560   -2.5856 C.ar      1 <0>        -0.2914
     28 C22        -1.7071   -4.5128   -2.6704 C.ar      1 <0>         0.4593
     29 N6         -0.8305   -3.9190   -1.8683 N.ar      1 <0>        -0.5837
     30 N7         -1.2876   -5.4750   -3.5868 N.pl3     1 <0>        -0.4439
     31 C23        -2.0778   -6.1500   -4.4707 C.2       1 <0>         0.2734
     32 N8         -1.3576   -6.9728   -5.1746 N.2       1 <0>        -0.4618
     33 C24        -0.0565   -6.8850   -4.7937 C.ar      1 <0>         0.0439
     34 C25         0.0091   -5.9201   -3.7744 C.ar      1 <0>         0.0540
     35 C26         1.2286   -5.6118   -3.1900 C.ar      1 <0>        -0.0929
     36 C27         2.3741   -6.2521   -3.6142 C.ar      1 <0>        -0.0987
     37 C28         2.3154   -7.2030   -4.6226 C.ar      1 <0>        -0.1172
     38 C29         1.1126   -7.5273   -5.2084 C.ar      1 <0>        -0.0611
     39 H1          0.2207    0.2243   -0.2590 H         1 <0>         0.0770
     40 H2         -1.4819   -0.0630   -0.6913 H         1 <0>         0.0968
     41 H3         -1.0762    0.7197    0.8550 H         1 <0>         0.0648
     42 H4         -1.6918   -1.6580    1.1957 H         1 <0>         0.1231
     43 H5          0.2780   -2.3056    2.4975 H         1 <0>         0.1509
     44 H6          2.0119   -1.9779    0.7998 H         1 <0>         0.1370
     45 H7          1.7097   -0.2202    0.7858 H         1 <0>         0.1038
     46 H8          2.9591   -0.1007    4.4261 H         1 <0>         0.1234
     47 H9          2.3375    1.0240    3.1893 H         1 <0>         0.1042
     48 H10         0.8050   -1.2615    4.5145 H         1 <0>         0.1371
     49 H11         0.5270    0.4808    4.7513 H         1 <0>         0.1523
     50 H12        -1.5407   -1.3903    3.8417 H         1 <0>         0.1268
     51 H13        -1.7027    0.3746    4.0062 H         1 <0>         0.1328
     52 H14        -2.1066   -0.4163    2.4636 H         1 <0>         0.1316
     53 H15         4.4392   -0.8020    4.2973 H         1 <0>         0.4048
     54 H16         6.0648   -2.0100    1.4211 H         1 <0>         0.1328
     55 H17         8.2411   -3.0941    1.3471 H         1 <0>         0.1344
     56 H18        10.1581   -4.1069    2.5388 H         1 <0>         0.1305
     57 H19        11.2234   -4.7360    4.6365 H         1 <0>         0.1275
     58 H20        10.1268   -4.2902    6.7903 H         1 <0>         0.1271
     59 H21         7.9474   -3.2064    6.8806 H         1 <0>         0.1278
     60 H22         6.0295   -2.1798    5.6927 H         1 <0>         0.1297
     61 H23         0.6466   -2.6629   -0.2360 H         1 <0>         0.4193
     62 H24        -4.4574   -2.8980   -1.5700 H         1 <0>         0.1845
     63 H25        -3.7879   -4.6186   -3.2271 H         1 <0>         0.1579
     64 H26        -3.1453   -6.0202   -4.5710 H         1 <0>         0.2251
     65 H27         1.2811   -4.8719   -2.4050 H         1 <0>         0.1352
     66 H28         3.3232   -6.0113   -3.1585 H         1 <0>         0.1344
     67 H29         3.2195   -7.6972   -4.9462 H         1 <0>         0.1366
     68 H30         1.0746   -8.2679   -5.9937 H         1 <0>         0.1371
     69 H31         0.0378    0.6166    2.3951 H         1 <0>         0.4249
@<TRIPOS>BOND
     1    1    2 1
     2    1   39 1
     3    1   40 1
     4    1   41 1
     5    2    3 1
     6    2   23 1
     7    2   42 1
     8    3    8 1
     9    3    4 1
    10    3   43 1
    11    4    5 1
    12    4   44 1
    13    4   45 1
    14    5    6 1
    15    5   10 am
    16    6    7 1
    17    6   46 1
    18    6   47 1
    19    7    8 1
    20    7   48 1
    21    7   49 1
    22    8    9 1
    23    8   69 1
    24    9   50 1
    25    9   51 1
    26    9   52 1
    27   10   11 2
    28   10   12 am
    29   12   13 1
    30   12   53 1
    31   13   22 ar
    32   13   14 ar
    33   14   15 ar
    34   14   54 1
    35   15   16 ar
    36   15   55 1
    37   16   21 ar
    38   16   17 ar
    39   17   18 ar
    40   17   56 1
    41   18   19 ar
    42   18   57 1
    43   19   20 ar
    44   19   58 1
    45   20   21 ar
    46   20   59 1
    47   21   22 ar
    48   22   60 1
    49   23   24 1
    50   23   61 1
    51   24   29 ar
    52   24   25 ar
    53   25   26 ar
    54   26   27 ar
    55   26   62 1
    56   27   28 ar
    57   27   63 1
    58   28   29 ar
    59   28   30 1
    60   30   34 1
    61   30   31 1
    62   31   32 2
    63   31   64 1
    64   32   33 1
    65   33   38 ar
    66   33   34 ar
    67   34   35 ar
    68   35   36 ar
    69   35   65 1
    70   36   37 ar
    71   36   66 1
    72   37   38 ar
    73   37   67 1
    74   38   68 1
@<TRIPOS>MOLECULE
CHEMBL568101__4
   68    73     0     0     0
SMALL
USER_CHARGES

@<TRIPOS>ATOM
      1 C1          2.0649    1.3932   -1.4296 C.3       1 <0>        -0.1678
      2 C2          1.5047    0.0048   -1.1142 C.3       1 <0>         0.1704
      3 C3          1.7203   -0.3075    0.3680 C.3       1 <0>         0.0599
      4 C4          3.2220   -0.4045    0.6570 C.3       1 <0>         0.1015
      5 N1          3.4024   -0.8509    2.0468 N.am      1 <0>        -0.6246
      6 C5          2.6790   -2.0518    2.4914 C.3       1 <0>         0.0690
      7 C6          1.1986   -1.8899    2.1302 C.3       1 <0>         0.0415
      8 N2          1.0777   -1.5866    0.6979 N.3       1 <0>        -0.5247
      9 C7          1.6259   -2.6773   -0.1193 C.3       1 <0>         0.0130
     10 C8          4.2096   -0.1776    2.8903 C.2       1 <0>         0.7107
     11 O1          4.8724    0.7564    2.4820 O.2       1 <0>        -0.5641
     12 N3          4.2822   -0.5396    4.1865 N.am      1 <0>        -0.6866
     13 C9          4.9994    0.2478    5.0936 C.ar      1 <0>         0.1764
     14 C10         5.0252    1.6384    4.9344 C.ar      1 <0>        -0.1124
     15 C11         5.7137    2.4279    5.8005 C.ar      1 <0>        -0.0854
     16 C12         6.4123    1.8478    6.8739 C.ar      1 <0>        -0.0651
     17 C13         7.1321    2.6392    7.7852 C.ar      1 <0>        -0.0993
     18 C14         7.7975    2.0465    8.8139 C.ar      1 <0>        -0.1229
     19 C15         7.7775    0.6628    8.9794 C.ar      1 <0>        -0.1104
     20 C16         7.0914   -0.1357    8.1170 C.ar      1 <0>        -0.1123
     21 C17         6.3915    0.4405    7.0425 C.ar      1 <0>        -0.0291
     22 C18         5.6679   -0.3526    6.1370 C.ar      1 <0>        -0.1458
     23 N4          0.0714   -0.0235   -1.4158 N.pl3     1 <0>        -0.6718
     24 C19        -0.3595   -0.2879   -2.7042 C.ar      1 <0>         0.6037
     25 N5          0.5381   -0.5185   -3.6512 N.ar      1 <0>        -0.5781
     26 C20         0.1637   -0.7755   -4.8950 C.ar      1 <0>         0.2233
     27 C21        -1.1839   -0.8022   -5.2036 C.ar      1 <0>        -0.3110
     28 C22        -2.1044   -0.5557   -4.1857 C.ar      1 <0>         0.4505
     29 N6         -1.6590   -0.3096   -2.9587 N.ar      1 <0>        -0.5912
     30 N7         -3.4723   -0.5719   -4.4508 N.pl3     1 <0>        -0.4402
     31 C23        -4.0603   -0.8200   -5.6567 C.2       1 <0>         0.2750
     32 N8         -5.3542   -0.7555   -5.5436 N.2       1 <0>        -0.4719
     33 C24        -5.6886   -0.4620   -4.2600 C.ar      1 <0>         0.0424
     34 C25        -4.4882   -0.3453   -3.5390 C.ar      1 <0>         0.0575
     35 C26        -4.5200   -0.0523   -2.1837 C.ar      1 <0>        -0.0885
     36 C27        -5.7313    0.1208   -1.5474 C.ar      1 <0>        -0.1038
     37 C28        -6.9194    0.0032   -2.2538 C.ar      1 <0>        -0.1201
     38 C29        -6.9067   -0.2794   -3.6010 C.ar      1 <0>        -0.0669
     39 H1          3.1314    1.4143   -1.2052 H         1 <0>         0.0715
     40 H2          1.9114    1.6157   -2.4855 H         1 <0>         0.0679
     41 H3          1.5511    2.1388   -0.8227 H         1 <0>         0.0595
     42 H4          2.0185   -0.7407   -1.7210 H         1 <0>         0.0981
     43 H5          1.2833    0.4861    0.9742 H         1 <0>         0.0965
     44 H6          3.6796   -1.1247   -0.0212 H         1 <0>         0.0746
     45 H7          3.6845    0.5735    0.5236 H         1 <0>         0.1072
     46 H8          3.0844   -2.9303    1.9895 H         1 <0>         0.0775
     47 H9          2.7825   -2.1629    3.5708 H         1 <0>         0.0831
     48 H10         0.6668   -2.8151    2.3522 H         1 <0>         0.0945
     49 H11         0.7693   -1.0744    2.7122 H         1 <0>         0.0839
     50 H12         2.6966   -2.7663    0.0647 H         1 <0>         0.0338
     51 H13         1.1328   -3.6127    0.1453 H         1 <0>         0.0709
     52 H14         1.4551   -2.4622   -1.1741 H         1 <0>         0.0734
     53 H15         3.8371   -1.3461    4.4905 H         1 <0>         0.4058
     54 H16         4.4909    2.0902    4.1117 H         1 <0>         0.1348
     55 H17         5.7244    3.4992    5.6641 H         1 <0>         0.1317
     56 H18         7.1575    3.7127    7.6695 H         1 <0>         0.1273
     57 H19         8.3497    2.6577    9.5124 H         1 <0>         0.1232
     58 H20         8.3147    0.2177    9.8038 H         1 <0>         0.1233
     59 H21         7.0849   -1.2065    8.2572 H         1 <0>         0.1261
     60 H22         5.6393   -1.4256    6.2558 H         1 <0>         0.1291
     61 H23        -0.5756    0.1431   -0.7126 H         1 <0>         0.4175
     62 H24         0.9028   -0.9619   -5.6602 H         1 <0>         0.1776
     63 H25        -1.5159   -1.0090   -6.2102 H         1 <0>         0.1496
     64 H26        -3.5290   -1.0378   -6.5713 H         1 <0>         0.2227
     65 H27        -3.5985    0.0399   -1.6280 H         1 <0>         0.1391
     66 H28        -5.7550    0.3490   -0.4920 H         1 <0>         0.1326
     67 H29        -7.8616    0.1406   -1.7440 H         1 <0>         0.1330
     68 H30        -7.8357   -0.3705   -4.1443 H         1 <0>         0.1332
@<TRIPOS>BOND
     1    1    2 1
     2    1   39 1
     3    1   40 1
     4    1   41 1
     5    2    3 1
     6    2   23 1
     7    2   42 1
     8    3    8 1
     9    3    4 1
    10    3   43 1
    11    4    5 1
    12    4   44 1
    13    4   45 1
    14    5    6 1
    15    5   10 am
    16    6    7 1
    17    6   46 1
    18    6   47 1
    19    7    8 1
    20    7   48 1
    21    7   49 1
    22    8    9 1
    23    9   50 1
    24    9   51 1
    25    9   52 1
    26   10   11 2
    27   10   12 am
    28   12   13 1
    29   12   53 1
    30   13   22 ar
    31   13   14 ar
    32   14   15 ar
    33   14   54 1
    34   15   16 ar
    35   15   55 1
    36   16   21 ar
    37   16   17 ar
    38   17   18 ar
    39   17   56 1
    40   18   19 ar
    41   18   57 1
    42   19   20 ar
    43   19   58 1
    44   20   21 ar
    45   20   59 1
    46   21   22 ar
    47   22   60 1
    48   23   24 1
    49   23   61 1
    50   24   29 ar
    51   24   25 ar
    52   25   26 ar
    53   26   27 ar
    54   26   62 1
    55   27   28 ar
    56   27   63 1
    57   28   29 ar
    58   28   30 1
    59   30   34 1
    60   30   31 1
    61   31   32 2
    62   31   64 1
    63   32   33 1
    64   33   38 ar
    65   33   34 ar
    66   34   35 ar
    67   35   36 ar
    68   35   65 1
    69   36   37 ar
    70   36   66 1
    71   37   38 ar
    72   37   67 1
    73   38   68 1
@<TRIPOS>MOLECULE
CHEMBL568101__5
   69    74     0     0     0
SMALL
USER_CHARGES

@<TRIPOS>ATOM
      1 C1          1.9125    1.1910    1.7658 C.3       1 <0>        -0.1705
      2 C2          1.0504    1.4563    0.5299 C.3       1 <0>         0.1505
      3 C3          1.5064    0.5487   -0.6143 C.3       1 <0>         0.0017
      4 C4          2.9175    0.9517   -1.0549 C.3       1 <0>         0.1157
      5 N1          3.2822    0.1555   -2.2369 N.am      1 <0>        -0.6414
      6 C5          2.3328    0.1063   -3.3596 C.3       1 <0>         0.0825
      7 C6          0.9493   -0.2568   -2.8102 C.3       1 <0>        -0.0211
      8 N2          0.5825    0.6875   -1.7472 N.4       1 <0>        -0.3806
      9 C7          0.6518    2.0593   -2.2680 C.3       1 <0>        -0.0647
     10 C8          4.4531   -0.5098   -2.2899 C.2       1 <0>         0.7132
     11 O1          5.1808   -0.5383   -1.3163 O.2       1 <0>        -0.5417
     12 N3          4.8175   -1.1435   -3.4222 N.am      1 <0>        -0.6775
     13 C9          5.9559   -1.9565   -3.4335 C.ar      1 <0>         0.1561
     14 C10         6.2986   -2.6845   -2.2879 C.ar      1 <0>        -0.1179
     15 C11         7.3988   -3.4823   -2.2704 C.ar      1 <0>        -0.0797
     16 C12         8.2095   -3.5833   -3.4147 C.ar      1 <0>        -0.0603
     17 C13         9.3527   -4.4006   -3.4257 C.ar      1 <0>        -0.1017
     18 C14        10.1162   -4.4767   -4.5499 C.ar      1 <0>        -0.1144
     19 C15         9.7825   -3.7549   -5.6944 C.ar      1 <0>        -0.1047
     20 C16         8.6831   -2.9533   -5.7211 C.ar      1 <0>        -0.1128
     21 C17         7.8699   -2.8496   -4.5790 C.ar      1 <0>        -0.0324
     22 C18         6.7246   -2.0367   -4.5730 C.ar      1 <0>        -0.1315
     23 N4         -0.3530    1.1778    0.8445 N.pl3     1 <0>        -0.7166
     24 C19        -1.1362    2.1534    1.4366 C.ar      1 <0>         0.5911
     25 N5         -0.6015    3.3352    1.7068 N.ar      1 <0>        -0.5749
     26 C20        -1.3196    4.2932    2.2724 C.ar      1 <0>         0.2245
     27 C21        -2.6451    4.0508    2.5828 C.ar      1 <0>        -0.2871
     28 C22        -3.1793    2.7974    2.2863 C.ar      1 <0>         0.4580
     29 N6         -2.4029    1.8842    1.7140 N.ar      1 <0>        -0.5859
     30 N7         -4.5100    2.5085    2.5819 N.pl3     1 <0>        -0.4442
     31 C23        -5.4137    3.3540    3.1563 C.2       1 <0>         0.2749
     32 N8         -6.5621    2.7579    3.2865 N.2       1 <0>        -0.4608
     33 C24        -6.4779    1.4899    2.8061 C.ar      1 <0>         0.0448
     34 C25        -5.1634    1.3124    2.3423 C.ar      1 <0>         0.0535
     35 C26        -4.7830    0.1003    1.7857 C.ar      1 <0>        -0.0951
     36 C27        -5.6983   -0.9265    1.6867 C.ar      1 <0>        -0.0996
     37 C28        -6.9982   -0.7555    2.1398 C.ar      1 <0>        -0.1175
     38 C29        -7.3912    0.4380    2.7022 C.ar      1 <0>        -0.0590
     39 H1          1.7502    0.1694    2.1095 H         1 <0>         0.0706
     40 H2          2.9637    1.3260    1.5113 H         1 <0>         0.0827
     41 H3          1.6377    1.8885    2.5570 H         1 <0>         0.0866
     42 H4          1.1557    2.4991    0.2305 H         1 <0>         0.1226
     43 H5          1.5132   -0.4874   -0.2758 H         1 <0>         0.1504
     44 H6          2.9333    2.0117   -1.3083 H         1 <0>         0.1019
     45 H7          3.6234    0.7543   -0.2483 H         1 <0>         0.1455
     46 H8          2.2896    1.0810   -3.8456 H         1 <0>         0.1034
     47 H9          2.6522   -0.6500   -4.0765 H         1 <0>         0.1234
     48 H10         0.2140   -0.2038   -3.6130 H         1 <0>         0.1494
     49 H11         0.9731   -1.2685   -2.4052 H         1 <0>         0.1374
     50 H12         1.6843    2.3002   -2.5208 H         1 <0>         0.1286
     51 H13         0.0308    2.1411   -3.1600 H         1 <0>         0.1308
     52 H14         0.2917    2.7545   -1.5096 H         1 <0>         0.1274
     53 H15         4.2903   -1.0359   -4.2294 H         1 <0>         0.4058
     54 H16         5.6802   -2.6110   -1.4055 H         1 <0>         0.1321
     55 H17         7.6502   -4.0374   -1.3788 H         1 <0>         0.1339
     56 H18         9.6243   -4.9654   -2.5462 H         1 <0>         0.1303
     57 H19        10.9940   -5.1058   -4.5549 H         1 <0>         0.1274
     58 H20        10.4058   -3.8325   -6.5730 H         1 <0>         0.1273
     59 H21         8.4368   -2.3993   -6.6149 H         1 <0>         0.1284
     60 H22         6.4510   -1.4757   -5.4544 H         1 <0>         0.1306
     61 H23        -0.7334    0.3098    0.6379 H         1 <0>         0.4116
     62 H24        -0.8749    5.2532    2.4892 H         1 <0>         0.1865
     63 H25        -3.2527    4.8148    3.0448 H         1 <0>         0.1590
     64 H26        -5.2057    4.3697    3.4588 H         1 <0>         0.2259
     65 H27        -3.7726   -0.0389    1.4305 H         1 <0>         0.1333
     66 H28        -5.4011   -1.8700    1.2531 H         1 <0>         0.1335
     67 H29        -7.7058   -1.5671    2.0563 H         1 <0>         0.1372
     68 H30        -8.4052    0.5643    3.0519 H         1 <0>         0.1381
     69 H31        -0.3584    0.4949   -1.4378 H         1 <0>         0.4259
@<TRIPOS>BOND
     1    1    2 1
     2    1   39 1
     3    1   40 1
     4    1   41 1
     5    2    3 1
     6    2   23 1
     7    2   42 1
     8    3    8 1
     9    3    4 1
    10    3   43 1
    11    4    5 1
    12    4   44 1
    13    4   45 1
    14    5    6 1
    15    5   10 am
    16    6    7 1
    17    6   46 1
    18    6   47 1
    19    7    8 1
    20    7   48 1
    21    7   49 1
    22    8    9 1
    23    8   69 1
    24    9   50 1
    25    9   51 1
    26    9   52 1
    27   10   11 2
    28   10   12 am
    29   12   13 1
    30   12   53 1
    31   13   22 ar
    32   13   14 ar
    33   14   15 ar
    34   14   54 1
    35   15   16 ar
    36   15   55 1
    37   16   21 ar
    38   16   17 ar
    39   17   18 ar
    40   17   56 1
    41   18   19 ar
    42   18   57 1
    43   19   20 ar
    44   19   58 1
    45   20   21 ar
    46   20   59 1
    47   21   22 ar
    48   22   60 1
    49   23   24 1
    50   23   61 1
    51   24   29 ar
    52   24   25 ar
    53   25   26 ar
    54   26   27 ar
    55   26   62 1
    56   27   28 ar
    57   27   63 1
    58   28   29 ar
    59   28   30 1
    60   30   34 1
    61   30   31 1
    62   31   32 2
    63   31   64 1
    64   32   33 1
    65   33   38 ar
    66   33   34 ar
    67   34   35 ar
    68   35   36 ar
    69   35   65 1
    70   36   37 ar
    71   36   66 1
    72   37   38 ar
    73   37   67 1
    74   38   68 1
@<TRIPOS>MOLECULE
CHEMBL568101__6
   68    73     0     0     0
SMALL
USER_CHARGES

@<TRIPOS>ATOM
      1 C1         -1.5905    1.0174    1.9003 C.3       1 <0>        -0.1686
      2 C2         -0.1504    1.2358    1.4319 C.3       1 <0>         0.1681
      3 C3          0.7998    0.4115    2.3030 C.3       1 <0>         0.0595
      4 C4          0.4316   -1.0723    2.1986 C.3       1 <0>         0.1388
      5 N1          1.4448   -1.8569    2.9206 N.am      1 <0>        -0.6262
      6 C5          2.8621   -1.6195    2.6074 C.3       1 <0>         0.1127
      7 C6          3.1345   -0.1141    2.6956 C.3       1 <0>         0.0396
      8 N2          2.1805    0.6039    1.8399 N.3       1 <0>        -0.5324
      9 C7          2.5153    2.0321    1.7614 C.3       1 <0>         0.0233
     10 C8          1.0840   -2.7690    3.8450 C.2       1 <0>         0.7092
     11 O1         -0.0921   -3.0196    4.0251 O.2       1 <0>        -0.5659
     12 N3          2.0268   -3.4032    4.5697 N.am      1 <0>        -0.6866
     13 C9          1.6596   -4.4171    5.4609 C.ar      1 <0>         0.1763
     14 C10         0.5890   -5.2623    5.1456 C.ar      1 <0>        -0.1121
     15 C11         0.2104   -6.2556    5.9926 C.ar      1 <0>        -0.0861
     16 C12         0.8983   -6.4437    7.2042 C.ar      1 <0>        -0.0651
     17 C13         0.5295   -7.4628    8.0989 C.ar      1 <0>        -0.0993
     18 C14         1.2162   -7.6185    9.2636 C.ar      1 <0>        -0.1232
     19 C15         2.2829   -6.7812    9.5855 C.ar      1 <0>        -0.1107
     20 C16         2.6687   -5.7837    8.7440 C.ar      1 <0>        -0.1124
     21 C17         1.9835   -5.5924    7.5314 C.ar      1 <0>        -0.0293
     22 C18         2.3585   -4.5771    6.6365 C.ar      1 <0>        -0.1462
     23 N4         -0.0220    0.8139    0.0349 N.pl3     1 <0>        -0.6747
     24 C19        -0.3464    1.6909   -0.9854 C.ar      1 <0>         0.6032
     25 N5         -0.7664    2.9101   -0.6803 N.ar      1 <0>        -0.5776
     26 C20        -1.0855    3.7767   -1.6293 C.ar      1 <0>         0.2233
     27 C21        -0.9768    3.3983   -2.9548 C.ar      1 <0>        -0.3104
     28 C22        -0.5321    2.1089   -3.2442 C.ar      1 <0>         0.4507
     29 N6         -0.2243    1.2926   -2.2425 N.ar      1 <0>        -0.5912
     30 N7         -0.4077    1.6842   -4.5655 N.pl3     1 <0>        -0.4403
     31 C23        -0.6786    2.4208   -5.6815 C.2       1 <0>         0.2750
     32 N8         -0.4525    1.7131   -6.7487 N.2       1 <0>        -0.4717
     33 C24        -0.0213    0.4743   -6.3950 C.ar      1 <0>         0.0425
     34 C25         0.0193    0.4386   -4.9909 C.ar      1 <0>         0.0575
     35 C26         0.4327   -0.7137   -4.3390 C.ar      1 <0>        -0.0884
     36 C27         0.8058   -1.8205   -5.0723 C.ar      1 <0>        -0.1036
     37 C28         0.7709   -1.7895   -6.4588 C.ar      1 <0>        -0.1200
     38 C29         0.3558   -0.6571   -7.1225 C.ar      1 <0>        -0.0667
     39 H1         -1.6637    1.2387    2.9651 H         1 <0>         0.0697
     40 H2         -2.2571    1.6774    1.3453 H         1 <0>         0.0690
     41 H3         -1.8765   -0.0196    1.7243 H         1 <0>         0.0623
     42 H4          0.1031    2.2925    1.5172 H         1 <0>         0.1020
     43 H5          0.7156    0.7355    3.3403 H         1 <0>         0.0667
     44 H6         -0.5480   -1.2389    2.6465 H         1 <0>         0.1056
     45 H7          0.4142   -1.3725    1.1509 H         1 <0>         0.0729
     46 H8          3.4892   -2.1478    3.3254 H         1 <0>         0.0808
     47 H9          3.0783   -1.9722    1.5989 H         1 <0>         0.0848
     48 H10         3.0179    0.2168    3.7276 H         1 <0>         0.0422
     49 H11         4.1509    0.0919    2.3598 H         1 <0>         0.0933
     50 H12         2.3025    2.5083    2.7184 H         1 <0>         0.0301
     51 H13         3.5738    2.1449    1.5268 H         1 <0>         0.0702
     52 H14         1.9180    2.5029    0.9805 H         1 <0>         0.0739
     53 H15         2.9600   -3.1567    4.4734 H         1 <0>         0.4058
     54 H16         0.0562   -5.1228    4.2166 H         1 <0>         0.1367
     55 H17        -0.6178   -6.8992    5.7354 H         1 <0>         0.1315
     56 H18        -0.2954   -8.1190    7.8635 H         1 <0>         0.1272
     57 H19         0.9301   -8.4027    9.9489 H         1 <0>         0.1230
     58 H20         2.8107   -6.9259   10.5165 H         1 <0>         0.1231
     59 H21         3.4969   -5.1422    9.0064 H         1 <0>         0.1259
     60 H22         3.1863   -3.9240    6.8704 H         1 <0>         0.1289
     61 H23         0.2904   -0.0801   -0.1750 H         1 <0>         0.4157
     62 H24        -1.4271    4.7681   -1.3708 H         1 <0>         0.1777
     63 H25        -1.2310    4.0858   -3.7479 H         1 <0>         0.1497
     64 H26        -1.0297    3.4421   -5.6789 H         1 <0>         0.2227
     65 H27         0.4627   -0.7440   -3.2598 H         1 <0>         0.1387
     66 H28         1.1276   -2.7174   -4.5638 H         1 <0>         0.1325
     67 H29         1.0659   -2.6626   -7.0218 H         1 <0>         0.1330
     68 H30         0.3322   -0.6398   -8.2021 H         1 <0>         0.1333
@<TRIPOS>BOND
     1    1    2 1
     2    1   39 1
     3    1   40 1
     4    1   41 1
     5    2    3 1
     6    2   23 1
     7    2   42 1
     8    3    8 1
     9    3    4 1
    10    3   43 1
    11    4    5 1
    12    4   44 1
    13    4   45 1
    14    5    6 1
    15    5   10 am
    16    6    7 1
    17    6   46 1
    18    6   47 1
    19    7    8 1
    20    7   48 1
    21    7   49 1
    22    8    9 1
    23    9   50 1
    24    9   51 1
    25    9   52 1
    26   10   11 2
    27   10   12 am
    28   12   13 1
    29   12   53 1
    30   13   22 ar
    31   13   14 ar
    32   14   15 ar
    33   14   54 1
    34   15   16 ar
    35   15   55 1
    36   16   21 ar
    37   16   17 ar
    38   17   18 ar
    39   17   56 1
    40   18   19 ar
    41   18   57 1
    42   19   20 ar
    43   19   58 1
    44   20   21 ar
    45   20   59 1
    46   21   22 ar
    47   22   60 1
    48   23   24 1
    49   23   61 1
    50   24   29 ar
    51   24   25 ar
    52   25   26 ar
    53   26   27 ar
    54   26   62 1
    55   27   28 ar
    56   27   63 1
    57   28   29 ar
    58   28   30 1
    59   30   34 1
    60   30   31 1
    61   31   32 2
    62   31   64 1
    63   32   33 1
    64   33   38 ar
    65   33   34 ar
    66   34   35 ar
    67   35   36 ar
    68   35   65 1
    69   36   37 ar
    70   36   66 1
    71   37   38 ar
    72   37   67 1
    73   38   68 1
@<TRIPOS>MOLECULE
CHEMBL568101__7
   69    74     0     0     0
SMALL
USER_CHARGES

@<TRIPOS>ATOM
      1 C1          2.4518    1.0642    0.4409 C.3       1 <0>        -0.1713
      2 C2          1.3125    1.2558   -0.5621 C.3       1 <0>         0.1497
      3 C3          1.6012    0.4398   -1.8238 C.3       1 <0>         0.0030
      4 C4          1.7365   -1.0411   -1.4546 C.3       1 <0>         0.1114
      5 N1          1.8830   -1.8193   -2.6945 N.am      1 <0>        -0.6419
      6 C5          0.9093   -1.5933   -3.7738 C.3       1 <0>         0.0834
      7 C6          0.8131   -0.0863   -4.0335 C.3       1 <0>        -0.0223
      8 N2          0.4976    0.6066   -2.7779 N.4       1 <0>        -0.3831
      9 C7          0.2972    2.0368   -3.0469 C.3       1 <0>        -0.0523
     10 C8          2.8811   -2.7135   -2.8376 C.2       1 <0>         0.7124
     11 O1          3.6199   -2.9548   -1.9025 O.2       1 <0>        -0.5416
     12 N3          3.0604   -3.3403   -4.0172 N.am      1 <0>        -0.6773
     13 C9          4.0345   -4.3369   -4.1388 C.ar      1 <0>         0.1563
     14 C10         4.3003   -5.1818   -3.0546 C.ar      1 <0>        -0.1172
     15 C11         5.2411   -6.1585   -3.1444 C.ar      1 <0>        -0.0797
     16 C12         5.9619   -6.3296   -4.3394 C.ar      1 <0>        -0.0599
     17 C13         6.9400   -7.3314   -4.4612 C.ar      1 <0>        -0.1011
     18 C14         7.6199   -7.4709   -5.6320 C.ar      1 <0>        -0.1148
     19 C15         7.3619   -6.6338   -6.7160 C.ar      1 <0>        -0.1048
     20 C16         6.4222   -5.6528   -6.6352 C.ar      1 <0>        -0.1134
     21 C17         5.6992   -5.4786   -5.4421 C.ar      1 <0>        -0.0329
     22 C18         4.7180   -4.4805   -5.3254 C.ar      1 <0>        -0.1325
     23 N4          0.0543    0.8021    0.0356 N.pl3     1 <0>        -0.7169
     24 C19        -0.6817    1.6603    0.8338 C.ar      1 <0>         0.5908
     25 N5         -0.2359    2.8906    1.0423 N.ar      1 <0>        -0.5761
     26 C20        -0.9129    3.7399    1.7997 C.ar      1 <0>         0.2244
     27 C21        -2.1005    3.3315    2.3782 C.ar      1 <0>        -0.2877
     28 C22        -2.5437    2.0310    2.1403 C.ar      1 <0>         0.4583
     29 N6         -1.8168    1.2333    1.3659 N.ar      1 <0>        -0.5858
     30 N7         -3.7345    1.5762    2.7031 N.pl3     1 <0>        -0.4442
     31 C23        -4.5767    2.2914    3.5035 C.2       1 <0>         0.2748
     32 N8         -5.5933    1.5580    3.8494 N.2       1 <0>        -0.4609
     33 C24        -5.4768    0.3223    3.2969 C.ar      1 <0>         0.0448
     34 C25        -4.2869    0.3167    2.5495 C.ar      1 <0>         0.0537
     35 C26        -3.9066   -0.8257    1.8612 C.ar      1 <0>        -0.0947
     36 C27        -4.7003   -1.9525    1.9105 C.ar      1 <0>        -0.0996
     37 C28        -5.8778   -1.9513    2.6440 C.ar      1 <0>        -0.1175
     38 C29        -6.2668   -0.8290    3.3398 C.ar      1 <0>        -0.0591
     39 H1          2.4706    0.0271    0.7758 H         1 <0>         0.0723
     40 H2          3.4008    1.3092   -0.0360 H         1 <0>         0.0816
     41 H3          2.2958    1.7199    1.2976 H         1 <0>         0.0871
     42 H4          1.2313    2.3111   -0.8226 H         1 <0>         0.1260
     43 H5          2.5294    0.7878   -2.2772 H         1 <0>         0.1611
     44 H6          2.6162   -1.1833   -0.8269 H         1 <0>         0.1468
     45 H7          0.8447   -1.3683   -0.9200 H         1 <0>         0.0919
     46 H8          1.2421   -2.1005   -4.6794 H         1 <0>         0.1236
     47 H9         -0.0660   -1.9762   -3.4734 H         1 <0>         0.1032
     48 H10         1.7651    0.2775   -4.4201 H         1 <0>         0.1386
     49 H11         0.0266    0.1073   -4.7630 H         1 <0>         0.1496
     50 H12         1.2419    2.4843   -3.3556 H         1 <0>         0.1282
     51 H13        -0.4388    2.1573   -3.8418 H         1 <0>         0.1291
     52 H14        -0.0603    2.5299   -2.1430 H         1 <0>         0.1260
     53 H15         2.5140   -3.1003   -4.7819 H         1 <0>         0.4044
     54 H16         3.7503   -5.0553   -2.1337 H         1 <0>         0.1342
     55 H17         5.4350   -6.8021   -2.2990 H         1 <0>         0.1343
     56 H18         7.1514   -7.9872   -3.6296 H         1 <0>         0.1305
     57 H19         8.3709   -8.2418   -5.7222 H         1 <0>         0.1274
     58 H20         7.9162   -6.7653   -7.6336 H         1 <0>         0.1271
     59 H21         6.2331   -5.0112   -7.4831 H         1 <0>         0.1278
     60 H22         4.5040   -3.8279   -6.1589 H         1 <0>         0.1296
     61 H23        -0.2630   -0.0998   -0.1282 H         1 <0>         0.4112
     62 H24        -0.5413    4.7406    1.9641 H         1 <0>         0.1860
     63 H25        -2.6718    4.0044    3.0004 H         1 <0>         0.1587
     64 H26        -4.4215    3.3165    3.8060 H         1 <0>         0.2257
     65 H27        -2.9915   -0.8329    1.2878 H         1 <0>         0.1333
     66 H28        -4.4034   -2.8417    1.3742 H         1 <0>         0.1334
     67 H29        -6.4909   -2.8399    2.6745 H         1 <0>         0.1371
     68 H30        -7.1853   -0.8349    3.9079 H         1 <0>         0.1379
     69 H31        -0.3469    0.2193   -2.3845 H         1 <0>         0.4217
@<TRIPOS>BOND
     1    1    2 1
     2    1   39 1
     3    1   40 1
     4    1   41 1
     5    2    3 1
     6    2   23 1
     7    2   42 1
     8    3    8 1
     9    3    4 1
    10    3   43 1
    11    4    5 1
    12    4   44 1
    13    4   45 1
    14    5    6 1
    15    5   10 am
    16    6    7 1
    17    6   46 1
    18    6   47 1
    19    7    8 1
    20    7   48 1
    21    7   49 1
    22    8    9 1
    23    8   69 1
    24    9   50 1
    25    9   51 1
    26    9   52 1
    27   10   11 2
    28   10   12 am
    29   12   13 1
    30   12   53 1
    31   13   22 ar
    32   13   14 ar
    33   14   15 ar
    34   14   54 1
    35   15   16 ar
    36   15   55 1
    37   16   21 ar
    38   16   17 ar
    39   17   18 ar
    40   17   56 1
    41   18   19 ar
    42   18   57 1
    43   19   20 ar
    44   19   58 1
    45   20   21 ar
    46   20   59 1
    47   21   22 ar
    48   22   60 1
    49   23   24 1
    50   23   61 1
    51   24   29 ar
    52   24   25 ar
    53   25   26 ar
    54   26   27 ar
    55   26   62 1
    56   27   28 ar
    57   27   63 1
    58   28   29 ar
    59   28   30 1
    60   30   34 1
    61   30   31 1
    62   31   32 2
    63   31   64 1
    64   32   33 1
    65   33   38 ar
    66   33   34 ar
    67   34   35 ar
    68   35   36 ar
    69   35   65 1
    70   36   37 ar
    71   36   66 1
    72   37   38 ar
    73   37   67 1
    74   38   68 1
@<TRIPOS>MOLECULE
CHEMBL567886
   61    66     0     0     0
SMALL
USER_CHARGES

@<TRIPOS>ATOM
      1 C1         -0.9431   -0.3281   -0.9358 C.ar      1 <0>        -0.1071
      2 C2         -0.7444   -1.3873   -1.8195 C.ar      1 <0>        -0.1148
      3 C3          0.4324   -2.0704   -1.8400 C.ar      1 <0>        -0.1017
      4 C4          1.4650   -1.7047   -0.9577 C.ar      1 <0>        -0.0580
      5 C5          2.6906   -2.3875   -0.9530 C.ar      1 <0>        -0.0715
      6 C6          3.6836   -1.9979   -0.0698 C.ar      1 <0>        -0.1192
      7 C7          3.4705   -0.9274    0.8173 C.ar      1 <0>        -0.0775
      8 C8          2.2911   -0.2559    0.8268 C.ar      1 <0>        -0.1030
      9 C9          1.2625   -0.6270   -0.0586 C.ar      1 <0>        -0.0376
     10 C10         0.0336    0.0538   -0.0677 C.ar      1 <0>        -0.1091
     11 C11         4.9769   -2.7128   -0.0589 C.2       1 <0>         0.5617
     12 O1          6.0172   -2.0885   -0.1353 O.2       1 <0>        -0.5282
     13 N1          5.0031   -4.0570    0.0358 N.am      1 <0>        -0.6061
     14 C12         3.7547   -4.8316    0.0393 C.3       1 <0>         0.0925
     15 C13         3.7414   -5.7398    1.2730 C.3       1 <0>        -0.1341
     16 C14         5.0112   -6.5939    1.2864 C.3       1 <0>        -0.1113
     17 C15         6.2391   -5.6843    1.3695 C.3       1 <0>        -0.1157
     18 C16         6.2809   -4.7759    0.1312 C.3       1 <0>         0.1160
     19 C17         7.5065   -6.5402    1.4159 C.3       1 <0>         0.1453
     20 N2          8.6724   -5.6758    1.6154 N.pl3     1 <0>        -0.6941
     21 C18         9.9389   -6.2287    1.6905 C.ar      1 <0>         0.5995
     22 N3         10.0788   -7.5413    1.5745 N.ar      1 <0>        -0.5756
     23 C19        11.2746   -8.1062    1.6407 C.ar      1 <0>         0.2231
     24 C20        12.3886   -7.3101    1.8337 C.ar      1 <0>        -0.3078
     25 C21        12.2094   -5.9324    1.9521 C.ar      1 <0>         0.4505
     26 N4         10.9815   -5.4323    1.8711 N.ar      1 <0>        -0.5915
     27 N5         13.3033   -5.0917    2.1479 N.pl3     1 <0>        -0.4406
     28 C22        14.6104   -5.4718    2.2383 C.2       1 <0>         0.2746
     29 N6         15.3664   -4.4296    2.4210 N.2       1 <0>        -0.4709
     30 C23        14.6002   -3.3084    2.4608 C.ar      1 <0>         0.0424
     31 C24        13.2672   -3.7148    2.2810 C.ar      1 <0>         0.0568
     32 C25        12.2508   -2.7712    2.2707 C.ar      1 <0>        -0.0893
     33 C26        12.5529   -1.4355    2.4343 C.ar      1 <0>        -0.1025
     34 C27        13.8676   -1.0285    2.6087 C.ar      1 <0>        -0.1194
     35 C28        14.8884   -1.9519    2.6295 C.ar      1 <0>        -0.0666
     36 H1         -1.8848    0.2007   -0.9428 H         1 <0>         0.1263
     37 H2         -1.5358   -1.6702   -2.4977 H         1 <0>         0.1265
     38 H3          0.5727   -2.8895   -2.5298 H         1 <0>         0.1296
     39 H4          2.8582   -3.2102   -1.6322 H         1 <0>         0.1345
     40 H5          4.2552   -0.6362    1.4997 H         1 <0>         0.1302
     41 H6          2.1422    0.5639    1.5140 H         1 <0>         0.1348
     42 H7         -0.1354    0.8768    0.6108 H         1 <0>         0.1304
     43 H8          2.9032   -4.1522    0.0765 H         1 <0>         0.0969
     44 H9          3.6999   -5.4404   -0.8632 H         1 <0>         0.0740
     45 H10         3.7048   -5.1282    2.1745 H         1 <0>         0.0696
     46 H11         2.8666   -6.3890    1.2374 H         1 <0>         0.0819
     47 H12         4.9926   -7.2586    2.1501 H         1 <0>         0.0739
     48 H13         5.0596   -7.1869    0.3731 H         1 <0>         0.0717
     49 H14         6.1789   -5.0732    2.2701 H         1 <0>         0.0845
     50 H15         6.4279   -5.3803   -0.7639 H         1 <0>         0.0734
     51 H16         7.0968   -4.0597    0.2291 H         1 <0>         0.0931
     52 H17         7.4354   -7.2502    2.2399 H         1 <0>         0.0765
     53 H18         7.6130   -7.0829    0.4767 H         1 <0>         0.0745
     54 H19         8.5567   -4.7160    1.6948 H         1 <0>         0.4157
     55 H20        11.3786   -9.1769    1.5455 H         1 <0>         0.1794
     56 H21        13.3752   -7.7456    1.8917 H         1 <0>         0.1513
     57 H22        14.9654   -6.4894    2.1688 H         1 <0>         0.2232
     58 H23        11.2253   -3.0815    2.1347 H         1 <0>         0.1383
     59 H24        11.7607   -0.7015    2.4262 H         1 <0>         0.1334
     60 H25        14.0914    0.0204    2.7355 H         1 <0>         0.1335
     61 H26        15.9096   -1.6277    2.7647 H         1 <0>         0.1336
@<TRIPOS>BOND
     1    1   10 ar
     2    1    2 ar
     3    1   36 1
     4    2    3 ar
     5    2   37 1
     6    3    4 ar
     7    3   38 1
     8    4    9 ar
     9    4    5 ar
    10    5    6 ar
    11    5   39 1
    12    6    7 ar
    13    6   11 1
    14    7    8 ar
    15    7   40 1
    16    8    9 ar
    17    8   41 1
    18    9   10 ar
    19   10   42 1
    20   11   12 2
    21   11   13 am
    22   13   18 1
    23   13   14 1
    24   14   15 1
    25   14   43 1
    26   14   44 1
    27   15   16 1
    28   15   45 1
    29   15   46 1
    30   16   17 1
    31   16   47 1
    32   16   48 1
    33   17   18 1
    34   17   19 1
    35   17   49 1
    36   18   50 1
    37   18   51 1
    38   19   20 1
    39   19   52 1
    40   19   53 1
    41   20   21 1
    42   20   54 1
    43   21   26 ar
    44   21   22 ar
    45   22   23 ar
    46   23   24 ar
    47   23   55 1
    48   24   25 ar
    49   24   56 1
    50   25   26 ar
    51   25   27 1
    52   27   31 1
    53   27   28 1
    54   28   29 2
    55   28   57 1
    56   29   30 1
    57   30   35 ar
    58   30   31 ar
    59   31   32 ar
    60   32   33 ar
    61   32   58 1
    62   33   34 ar
    63   33   59 1
    64   34   35 ar
    65   34   60 1
    66   35   61 1
@<TRIPOS>MOLECULE
CHEMBL567886__1
   61    66     0     0     0
SMALL
USER_CHARGES

@<TRIPOS>ATOM
      1 C1         -0.9224   -0.3177    0.9230 C.ar      1 <0>        -0.1062
      2 C2         -0.7132   -1.3830    1.7969 C.ar      1 <0>        -0.1156
      3 C3          0.4620   -2.0692    1.7954 C.ar      1 <0>        -0.1008
      4 C4          1.4822   -1.7004    0.9001 C.ar      1 <0>        -0.0604
      5 C5          2.7054   -2.3869    0.8720 C.ar      1 <0>        -0.0684
      6 C6          3.6859   -1.9947   -0.0240 C.ar      1 <0>        -0.1233
      7 C7          3.4624   -0.9177   -0.9006 C.ar      1 <0>        -0.0745
      8 C8          2.2854   -0.2420   -0.8870 C.ar      1 <0>        -0.1055
      9 C9          1.2691   -0.6164    0.0111 C.ar      1 <0>        -0.0357
     10 C10         0.0423    0.0673    0.0429 C.ar      1 <0>        -0.1099
     11 C11         4.9769   -2.7128   -0.0589 C.2       1 <0>         0.5618
     12 O1          6.0154   -2.0912   -0.1730 O.2       1 <0>        -0.5291
     13 N1          5.0031   -4.0570    0.0358 N.am      1 <0>        -0.6071
     14 C12         3.7547   -4.8316    0.0394 C.3       1 <0>         0.0941
     15 C13         3.8351   -5.9014   -1.0542 C.3       1 <0>        -0.1347
     16 C14         5.0971   -6.7422   -0.8479 C.3       1 <0>        -0.1112
     17 C15         6.3328   -5.8459   -0.9573 C.3       1 <0>        -0.1162
     18 C16         6.2809   -4.7759    0.1312 C.3       1 <0>         0.1158
     19 C17         7.5950   -6.6930   -0.7836 C.3       1 <0>         0.1458
     20 N2          8.7779   -5.8580   -1.0066 N.pl3     1 <0>        -0.6941
     21 C18        10.0433   -6.4089   -0.9031 C.ar      1 <0>         0.5996
     22 N3         10.1660   -7.6946   -0.6069 N.ar      1 <0>        -0.5757
     23 C19        11.3600   -8.2569   -0.4998 C.ar      1 <0>         0.2231
     24 C20        12.4905   -7.4865   -0.7010 C.ar      1 <0>        -0.3080
     25 C21        12.3292   -6.1367   -1.0114 C.ar      1 <0>         0.4505
     26 N4         11.1014   -5.6392   -1.1079 N.ar      1 <0>        -0.5914
     27 N5         13.4402   -5.3224   -1.2219 N.pl3     1 <0>        -0.4407
     28 C22        14.7481   -5.7064   -1.1641 C.2       1 <0>         0.2745
     29 N6         15.5223   -4.6917   -1.4131 N.2       1 <0>        -0.4709
     30 C23        14.7684   -3.5862   -1.6480 C.ar      1 <0>         0.0424
     31 C24        13.4228   -3.9745   -1.5346 C.ar      1 <0>         0.0568
     32 C25        12.4142   -3.0429   -1.7310 C.ar      1 <0>        -0.0893
     33 C26        12.7361   -1.7381   -2.0403 C.ar      1 <0>        -0.1025
     34 C27        14.0629   -1.3502   -2.1569 C.ar      1 <0>        -0.1194
     35 C28        15.0772   -2.2594   -1.9576 C.ar      1 <0>        -0.0667
     36 H1         -1.8658    0.2076    0.9412 H         1 <0>         0.1264
     37 H2         -1.4950   -1.6678    2.4855 H         1 <0>         0.1265
     38 H3          0.6106   -2.8925    2.4784 H         1 <0>         0.1296
     39 H4          2.8811   -3.2141    1.5437 H         1 <0>         0.1356
     40 H5          4.2375   -0.6245   -1.5932 H         1 <0>         0.1318
     41 H6          2.1288    0.5831   -1.5660 H         1 <0>         0.1348
     42 H7         -0.1350    0.8947   -0.6283 H         1 <0>         0.1305
     43 H8          3.6245   -5.3103    1.0099 H         1 <0>         0.0736
     44 H9          2.9127   -4.1686   -0.1593 H         1 <0>         0.0962
     45 H10         2.9566   -6.5444   -0.9994 H         1 <0>         0.0824
     46 H11         3.8741   -5.4204   -2.0315 H         1 <0>         0.0696
     47 H12         5.0690   -7.2031    0.1394 H         1 <0>         0.0717
     48 H13         5.1440   -7.5199   -1.6103 H         1 <0>         0.0740
     49 H14         6.3483   -5.3654   -1.9355 H         1 <0>         0.0843
     50 H15         7.1051   -4.0761   -0.0068 H         1 <0>         0.0934
     51 H16         6.3613   -5.2500    1.1095 H         1 <0>         0.0728
     52 H17         7.6230   -7.1003    0.2270 H         1 <0>         0.0743
     53 H18         7.5861   -7.5103   -1.5047 H         1 <0>         0.0766
     54 H19         8.6743   -4.9190   -1.2267 H         1 <0>         0.4161
     55 H20        11.4500   -9.3055   -0.2577 H         1 <0>         0.1794
     56 H21        13.4762   -7.9204   -0.6193 H         1 <0>         0.1513
     57 H22        15.0903   -6.7067   -0.9435 H         1 <0>         0.2231
     58 H23        11.3793   -3.3388   -1.6422 H         1 <0>         0.1384
     59 H24        11.9500   -1.0134   -2.1930 H         1 <0>         0.1335
     60 H25        14.3021   -0.3255   -2.3999 H         1 <0>         0.1335
     61 H26        16.1078   -1.9506   -2.0511 H         1 <0>         0.1336
@<TRIPOS>BOND
     1    1   10 ar
     2    1    2 ar
     3    1   36 1
     4    2    3 ar
     5    2   37 1
     6    3    4 ar
     7    3   38 1
     8    4    9 ar
     9    4    5 ar
    10    5    6 ar
    11    5   39 1
    12    6    7 ar
    13    6   11 1
    14    7    8 ar
    15    7   40 1
    16    8    9 ar
    17    8   41 1
    18    9   10 ar
    19   10   42 1
    20   11   12 2
    21   11   13 am
    22   13   18 1
    23   13   14 1
    24   14   15 1
    25   14   43 1
    26   14   44 1
    27   15   16 1
    28   15   45 1
    29   15   46 1
    30   16   17 1
    31   16   47 1
    32   16   48 1
    33   17   18 1
    34   17   19 1
    35   17   49 1
    36   18   50 1
    37   18   51 1
    38   19   20 1
    39   19   52 1
    40   19   53 1
    41   20   21 1
    42   20   54 1
    43   21   26 ar
    44   21   22 ar
    45   22   23 ar
    46   23   24 ar
    47   23   55 1
    48   24   25 ar
    49   24   56 1
    50   25   26 ar
    51   25   27 1
    52   27   31 1
    53   27   28 1
    54   28   29 2
    55   28   57 1
    56   29   30 1
    57   30   35 ar
    58   30   31 ar
    59   31   32 ar
    60   32   33 ar
    61   32   58 1
    62   33   34 ar
    63   33   59 1
    64   34   35 ar
    65   34   60 1
    66   35   61 1
@<TRIPOS>MOLECULE
CHEMBL108362
   56    59     0     0     0
SMALL
USER_CHARGES

@<TRIPOS>ATOM
      1 C1          2.5235   -1.2123    1.7689 C.3       1 <0>        -0.1136
      2 C2          1.3240   -1.3319    0.8645 C.ar      1 <0>        -0.0554
      3 C3          1.4163   -2.0438   -0.3159 C.ar      1 <0>        -0.1128
      4 C4          0.3166   -2.1548   -1.1464 C.ar      1 <0>        -0.0946
      5 C5         -0.8798   -1.5539   -0.7992 C.ar      1 <0>        -0.1146
      6 C6         -0.9793   -0.8399    0.3796 C.ar      1 <0>        -0.0194
      7 C7          0.1234   -0.7315    1.2195 C.ar      1 <0>         0.1511
      8 N1          0.0251   -0.0151    2.4162 N.pl3     1 <0>        -0.6457
      9 C8         -0.3649   -0.6581    3.5771 C.2       1 <0>         0.5108
     10 C9         -0.4741    0.0902    4.8272 C.2       1 <0>        -0.0857
     11 C10        -0.2686    1.4006    5.1832 C.2       1 <0>         0.0508
     12 N2         -0.5286    1.5071    6.4885 N.2       1 <0>        -0.4645
     13 C11        -0.8841    0.3402    6.9667 C.2       1 <0>         0.2009
     14 N3         -0.8658   -0.5693    5.9774 N.pl3     1 <0>        -0.3608
     15 C12        -1.1446   -1.9302    5.9082 C.ar      1 <0>         0.0470
     16 C13        -1.5409   -2.6213    7.0456 C.ar      1 <0>        -0.1538
     17 C14        -1.8173   -3.9739    6.9741 C.ar      1 <0>         0.0787
     18 C15        -1.6998   -4.6515    5.7582 C.ar      1 <0>         0.2064
     19 C16        -1.3068   -3.9748    4.6200 C.ar      1 <0>        -0.1430
     20 C17        -1.0243   -2.6045    4.6828 C.ar      1 <0>         0.1712
     21 N4         -0.6435   -1.9433    3.5569 N.2       1 <0>        -0.5537
     22 N5         -1.9808   -6.0217    5.6931 N.pl3     1 <0>        -0.7401
     23 C18        -1.8584   -6.7349    4.4193 C.3       1 <0>         0.1033
     24 C19        -2.2197   -8.2076    4.6226 C.3       1 <0>        -0.0221
     25 N6         -2.0970   -8.9227    3.3453 N.4       1 <0>        -0.3829
     26 C20        -2.3270  -10.3572    3.5632 C.3       1 <0>        -0.0466
     27 C21        -3.0926   -8.4057    2.3970 C.3       1 <0>        -0.0558
     28 O1         -2.2044   -4.6470    8.0910 O.3       1 <0>        -0.3180
     29 C22        -2.3037   -3.8932    9.3010 C.3       1 <0>         0.0263
     30 Cl1        -2.4809   -0.0853    0.8147 Cl        1 <0>        -0.0563
     31 H1          2.5287   -2.0411    2.4770 H         1 <0>         0.0729
     32 H2          3.4340   -1.2401    1.1704 H         1 <0>         0.0738
     33 H3          2.4753   -0.2694    2.3136 H         1 <0>         0.0685
     34 H4          2.3490   -2.5141   -0.5904 H         1 <0>         0.1335
     35 H5          0.3920   -2.7117   -2.0687 H         1 <0>         0.1355
     36 H6         -1.7370   -1.6425   -1.4502 H         1 <0>         0.1368
     37 H7          0.2304    0.9328    2.4323 H         1 <0>         0.4251
     38 H8          0.0464    2.1989    4.5275 H         1 <0>         0.1869
     39 H9         -1.1503    0.1406    7.9941 H         1 <0>         0.2148
     40 H10        -1.6330   -2.1013    7.9877 H         1 <0>         0.1416
     41 H11        -1.2168   -4.5024    3.6820 H         1 <0>         0.1417
     42 H12        -2.2566   -6.4987    6.4915 H         1 <0>         0.4136
     43 H13        -2.5353   -6.2922    3.6886 H         1 <0>         0.0816
     44 H14        -0.8330   -6.6589    4.0575 H         1 <0>         0.0812
     45 H15        -1.5429   -8.6503    5.3534 H         1 <0>         0.1383
     46 H16        -3.2451   -8.2836    4.9845 H         1 <0>         0.1373
     47 H17        -3.3275  -10.5072    3.9689 H         1 <0>         0.1234
     48 H18        -2.2359  -10.8878    2.6154 H         1 <0>         0.1278
     49 H19        -1.5883  -10.7409    4.2668 H         1 <0>         0.1248
     50 H20        -2.9219   -7.3413    2.2353 H         1 <0>         0.1260
     51 H21        -3.0015   -8.9363    1.4492 H         1 <0>         0.1283
     52 H22        -4.0931   -8.5557    2.8027 H         1 <0>         0.1247
     53 H23        -1.3319   -3.4617    9.5411 H         1 <0>         0.0590
     54 H24        -3.0341   -3.0944    9.1725 H         1 <0>         0.0590
     55 H25        -2.6207   -4.5485   10.1123 H         1 <0>         0.1066
     56 H26        -1.1708   -8.7838    2.9698 H         1 <0>         0.4296
@<TRIPOS>BOND
     1    1    2 1
     2    1   31 1
     3    1   32 1
     4    1   33 1
     5    2    7 ar
     6    2    3 ar
     7    3    4 ar
     8    3   34 1
     9    4    5 ar
    10    4   35 1
    11    5    6 ar
    12    5   36 1
    13    6    7 ar
    14    6   30 1
    15    7    8 1
    16    8    9 1
    17    8   37 1
    18    9   21 2
    19    9   10 1
    20   10   14 1
    21   10   11 2
    22   11   12 1
    23   11   38 1
    24   12   13 2
    25   13   14 1
    26   13   39 1
    27   14   15 1
    28   15   20 ar
    29   15   16 ar
    30   16   17 ar
    31   16   40 1
    32   17   18 ar
    33   17   28 1
    34   18   19 ar
    35   18   22 1
    36   19   20 ar
    37   19   41 1
    38   20   21 1
    39   22   23 1
    40   22   42 1
    41   23   24 1
    42   23   43 1
    43   23   44 1
    44   24   25 1
    45   24   45 1
    46   24   46 1
    47   25   26 1
    48   25   27 1
    49   25   56 1
    50   26   47 1
    51   26   48 1
    52   26   49 1
    53   27   50 1
    54   27   51 1
    55   27   52 1
    56   28   29 1
    57   29   53 1
    58   29   54 1
    59   29   55 1
@<TRIPOS>MOLECULE
CHEMBL272902
   46    48     0     0     0
SMALL
USER_CHARGES

@<TRIPOS>ATOM
      1 C1         -0.0943    1.5203   -0.0397 C.3       1 <0>        -0.1388
      2 C2         -0.0467    0.0142   -0.0620 C.ar      1 <0>         0.0167
      3 C3         -0.1228   -0.6597   -1.2650 C.ar      1 <0>        -0.1342
      4 C4         -0.0795   -2.0392   -1.2945 C.ar      1 <0>        -0.0500
      5 C5          0.0418   -2.7630   -0.1056 C.ar      1 <0>        -0.1542
      6 C6          0.1190   -2.0895    1.1114 C.ar      1 <0>        -0.0154
      7 C7          0.0800   -0.6968    1.1335 C.ar      1 <0>        -0.1493
      8 C8          0.1675    0.0265    2.4199 C.2       1 <0>         0.5646
      9 O1          0.0535    1.2365    2.4459 O.2       1 <0>        -0.5118
     10 N1          0.3737   -0.6557    3.5638 N.am      1 <0>        -0.6534
     11 C9          0.3600    0.0172    4.7932 C.ar      1 <0>        -0.0284
     12 C10         0.8410    1.3190    4.8983 C.ar      1 <0>         0.2027
     13 N2          0.8122    1.9227    6.0748 N.ar      1 <0>        -0.5536
     14 C11         0.3337    1.3036    7.1434 C.ar      1 <0>         0.5540
     15 N3         -0.1322    0.0654    7.0808 N.ar      1 <0>        -0.5533
     16 C12        -0.1404   -0.5984    5.9368 C.ar      1 <0>         0.1810
     17 N4          0.3205    1.9690    8.3594 N.pl3     1 <0>        -0.8199
     18 C13         0.0875   -4.2402   -0.1390 C.2       1 <0>         0.5632
     19 O2          0.1930   -4.8686    0.8963 O.2       1 <0>        -0.5095
     20 N5          0.0122   -4.8903   -1.3172 N.am      1 <0>        -0.6694
     21 C14        -0.0543   -6.2870   -1.3422 C.ar      1 <0>         0.1458
     22 C15         0.5604   -6.9949   -2.3672 C.ar      1 <0>        -0.1112
     23 C16         0.4932   -8.3739   -2.3887 C.ar      1 <0>        -0.0979
     24 C17        -0.1855   -9.0504   -1.3914 C.ar      1 <0>        -0.0858
     25 C18        -0.7984   -8.3488   -0.3697 C.ar      1 <0>        -0.1623
     26 C19        -0.7301   -6.9695   -0.3392 C.ar      1 <0>        -0.0711
     27 C20        -1.5368   -9.0900    0.7149 C.3       1 <0>         0.5091
     28 F1         -1.4631  -10.4659    0.4728 F         1 <0>        -0.1755
     29 F2         -0.9558   -8.8028    1.9547 F         1 <0>        -0.1724
     30 F3         -2.8772   -8.6893    0.7241 F         1 <0>        -0.1756
     31 H1          0.9205    1.9152    0.0103 H         1 <0>         0.0829
     32 H2         -0.5807    1.8820   -0.9456 H         1 <0>         0.0660
     33 H3         -0.6570    1.8531    0.8325 H         1 <0>         0.1087
     34 H4         -0.2169   -0.1050   -2.1869 H         1 <0>         0.1425
     35 H5         -0.1398   -2.5601   -2.2387 H         1 <0>         0.1333
     36 H6          0.2128   -2.6442    2.0333 H         1 <0>         0.1422
     37 H7          0.5317   -1.6123    3.5363 H         1 <0>         0.4132
     38 H8          1.2329    1.8294    4.0308 H         1 <0>         0.1822
     39 H9         -0.5259   -1.6062    5.8916 H         1 <0>         0.1716
     40 H10         0.6590    2.8760    8.4196 H         1 <0>         0.4159
     41 H11        -0.0271    1.5275    9.1501 H         1 <0>         0.4155
     42 H12         0.0042   -4.3894   -2.1478 H         1 <0>         0.4143
     43 H13         1.0899   -6.4672   -3.1467 H         1 <0>         0.1377
     44 H14         0.9709   -8.9249   -3.1854 H         1 <0>         0.1423
     45 H15        -0.2372  -10.1290   -1.4109 H         1 <0>         0.1422
     46 H16        -1.2053   -6.4223    0.4615 H         1 <0>         0.1451
@<TRIPOS>BOND
     1    1    2 1
     2    1   31 1
     3    1   32 1
     4    1   33 1
     5    2    7 ar
     6    2    3 ar
     7    3    4 ar
     8    3   34 1
     9    4    5 ar
    10    4   35 1
    11    5    6 ar
    12    5   18 1
    13    6    7 ar
    14    6   36 1
    15    7    8 1
    16    8    9 2
    17    8   10 am
    18   10   11 1
    19   10   37 1
    20   11   16 ar
    21   11   12 ar
    22   12   13 ar
    23   12   38 1
    24   13   14 ar
    25   14   15 ar
    26   14   17 1
    27   15   16 ar
    28   16   39 1
    29   17   40 1
    30   17   41 1
    31   18   19 2
    32   18   20 am
    33   20   21 1
    34   20   42 1
    35   21   26 ar
    36   21   22 ar
    37   22   23 ar
    38   22   43 1
    39   23   24 ar
    40   23   44 1
    41   24   25 ar
    42   24   45 1
    43   25   26 ar
    44   25   27 1
    45   26   46 1
    46   27   28 1
    47   27   29 1
    48   27   30 1
@<TRIPOS>MOLECULE
CHEMBL319620
   32    33     0     0     0
SMALL
USER_CHARGES

@<TRIPOS>ATOM
      1 C1         -0.0168    1.3871    0.0097 C.ar      1 <0>        -0.1873
      2 C2          1.1646    2.1008    0.0022 C.ar      1 <0>        -0.1242
      3 C3          2.3809    1.4354   -0.0134 C.ar      1 <0>         0.0834
      4 C4          2.4089    0.0328   -0.0213 C.ar      1 <0>        -0.1167
      5 C5          1.2076   -0.6831   -0.0132 C.ar      1 <0>        -0.1379
      6 C6          0.0021   -0.0041    0.0020 C.ar      1 <0>         0.1845
      7 N1         -1.2015   -0.7185    0.0097 N.pl3     1 <0>        -0.7465
      8 C7         -2.4789   -0.0015    0.0258 C.3       1 <0>         0.1800
      9 C8         -3.6124   -0.9946    0.0313 C.ar      1 <0>        -0.1118
     10 C9         -4.2763   -1.2915   -1.1433 C.ar      1 <0>        -0.1100
     11 C10        -5.3191   -2.2057   -1.1383 C.ar      1 <0>         0.0927
     12 C11        -5.6954   -2.8221    0.0461 C.ar      1 <0>        -0.1247
     13 C12        -5.0316   -2.5253    1.2202 C.ar      1 <0>        -0.1324
     14 C13        -3.9851   -1.6147    1.2143 C.ar      1 <0>         0.1170
     15 O1         -3.3279   -1.3267    2.3694 O.3       1 <0>        -0.4874
     16 O2         -5.9729   -2.4976   -2.2943 O.3       1 <0>        -0.4989
     17 C14         3.6956   -0.6813   -0.0384 C.2       1 <0>         0.5186
     18 O3          3.7163   -1.9046   -0.0452 O.co2     1 <0>        -0.6931
     19 O4          4.7446   -0.0518   -0.0458 O.co2     1 <0>        -0.6706
     20 O5          3.5412    2.1390   -0.0216 O.3       1 <0>        -0.4753
     21 H1         -0.9609    1.9113    0.0260 H         1 <0>         0.1126
     22 H2          1.1416    3.1805    0.0083 H         1 <0>         0.1175
     23 H3          1.2208   -1.7630   -0.0195 H         1 <0>         0.1258
     24 H4         -1.1897   -1.6884    0.0044 H         1 <0>         0.3978
     25 H5         -2.5357    0.6196    0.9197 H         1 <0>         0.0636
     26 H6         -2.5527    0.6292   -0.8602 H         1 <0>         0.0628
     27 H7         -3.9836   -0.8113   -2.0653 H         1 <0>         0.1356
     28 H8         -6.5077   -3.5338    0.0500 H         1 <0>         0.1327
     29 H9         -5.3251   -3.0046    2.1425 H         1 <0>         0.1345
     30 H10        -3.7096   -0.5899    2.8659 H         1 <0>         0.3901
     31 H11        -5.5896   -3.2358   -2.7874 H         1 <0>         0.3920
     32 H12         3.8865    2.3384    0.8593 H         1 <0>         0.3756
@<TRIPOS>BOND
     1    1    6 ar
     2    1    2 ar
     3    1   21 1
     4    2    3 ar
     5    2   22 1
     6    3    4 ar
     7    3   20 1
     8    4    5 ar
     9    4   17 1
    10    5    6 ar
    11    5   23 1
    12    6    7 1
    13    7    8 1
    14    7   24 1
    15    8    9 1
    16    8   25 1
    17    8   26 1
    18    9   14 ar
    19    9   10 ar
    20   10   11 ar
    21   10   27 1
    22   11   12 ar
    23   11   16 1
    24   12   13 ar
    25   12   28 1
    26   13   14 ar
    27   13   29 1
    28   14   15 1
    29   15   30 1
    30   16   31 1
    31   17   18 2
    32   17   19 1
    33   20   32 1
@<TRIPOS>MOLECULE
CHEMBL46785
   71    76     0     0     0
SMALL
USER_CHARGES

@<TRIPOS>ATOM
      1 C1         -1.2312    1.5072   -1.6400 C.3       1 <0>        -0.0457
      2 N1         -1.1652    0.0407   -1.5850 N.4       1 <0>        -0.3885
      3 C2         -2.4490   -0.4894   -1.1071 C.3       1 <0>        -0.0021
      4 C3         -2.3871   -2.0179   -1.0675 C.3       1 <0>         0.0201
      5 N2         -1.3001   -2.4382   -0.1721 N.3       1 <0>        -0.5347
      6 C4         -0.0116   -1.8943   -0.6240 C.3       1 <0>         0.0194
      7 C5         -0.0932   -0.3668   -0.6673 C.3       1 <0>        -0.0022
      8 C6         -1.2443   -3.9021   -0.0629 C.3       1 <0>         0.0859
      9 C7         -2.5698   -4.4227    0.4965 C.3       1 <0>        -0.1098
     10 C8         -2.5117   -5.9473    0.6102 C.3       1 <0>        -0.1272
     11 C9         -1.3706   -6.3457    1.5483 C.3       1 <0>         0.1743
     12 C10        -0.0451   -5.8251    0.9889 C.3       1 <0>        -0.1267
     13 C11        -0.1032   -4.3005    0.8752 C.3       1 <0>        -0.1113
     14 N3         -1.3149   -7.8056    1.6572 N.pl3     1 <0>        -0.3790
     15 C12        -1.4625   -8.5152    2.8116 C.ar      1 <0>         0.3775
     16 C13        -1.3409   -9.8761    2.4734 C.ar      1 <0>        -0.3273
     17 C14        -1.1097   -9.9248    1.0298 C.2       1 <0>         0.1842
     18 N4         -1.1081   -8.6880    0.5916 N.2       1 <0>        -0.2424
     19 C15        -0.9184  -11.1461    0.2121 C.ar      1 <0>        -0.0678
     20 C16        -1.7517  -12.2489    0.3983 C.ar      1 <0>        -0.0741
     21 C17        -1.5718  -13.3836   -0.3633 C.ar      1 <0>        -0.1598
     22 C18        -0.5603  -13.4296   -1.3161 C.ar      1 <0>         0.2046
     23 C19         0.2720  -12.3316   -1.5032 C.ar      1 <0>        -0.1645
     24 C20         0.0917  -11.1923   -0.7486 C.ar      1 <0>        -0.0463
     25 N5         -0.3798  -14.5801   -2.0860 N.pl3     1 <0>        -0.6855
     26 C21        -1.4746  -15.3885   -2.4013 C.ar      1 <0>         0.1717
     27 C22        -2.7355  -14.8250   -2.5527 C.ar      1 <0>        -0.1616
     28 C23        -3.8155  -15.6270   -2.8649 C.ar      1 <0>        -0.0881
     29 C24        -3.6431  -16.9896   -3.0264 C.ar      1 <0>        -0.1474
     30 C25        -2.3896  -17.5539   -2.8760 C.ar      1 <0>        -0.0860
     31 C26        -1.3041  -16.7570   -2.5699 C.ar      1 <0>        -0.1613
     32 C27        -1.4549  -10.8341    3.4938 C.ar      1 <0>         0.5202
     33 N6         -1.6728  -10.4109    4.7353 N.ar      1 <0>        -0.6041
     34 C28        -1.7803   -9.1228    5.0080 C.ar      1 <0>         0.3898
     35 N7         -1.6807   -8.1907    4.0858 N.ar      1 <0>        -0.5794
     36 N8         -1.3438  -12.1826    3.2147 N.pl3     1 <0>        -0.8255
     37 H1         -0.2791    1.9006   -1.9958 H         1 <0>         0.1240
     38 H2         -2.0267    1.8098   -2.3209 H         1 <0>         0.1240
     39 H3         -1.4369    1.8992   -0.6439 H         1 <0>         0.1232
     40 H4         -2.6495   -0.1079   -0.1059 H         1 <0>         0.1379
     41 H5         -3.2455   -0.1754   -1.7818 H         1 <0>         0.1353
     42 H6         -3.3345   -2.4108   -0.6988 H         1 <0>         0.1266
     43 H7         -2.2001   -2.4003   -2.0710 H         1 <0>         0.0605
     44 H8          0.7739   -2.1971    0.0683 H         1 <0>         0.1273
     45 H9          0.2144   -2.2747   -1.6202 H         1 <0>         0.0605
     46 H10         0.8569    0.0380   -1.0158 H         1 <0>         0.1352
     47 H11        -0.3058    0.0141    0.3317 H         1 <0>         0.1379
     48 H12        -1.0716   -4.3336   -1.0489 H         1 <0>         0.0569
     49 H13        -2.7425   -3.9911    1.4825 H         1 <0>         0.0820
     50 H14        -3.3827   -4.1389   -0.1718 H         1 <0>         0.0716
     51 H15        -3.4560   -6.3182    1.0088 H         1 <0>         0.0761
     52 H16        -2.3389   -6.3789   -0.3757 H         1 <0>         0.0786
     53 H17        -1.5433   -5.9142    2.5343 H         1 <0>         0.1115
     54 H18         0.7679   -6.1089    1.6572 H         1 <0>         0.0762
     55 H19         0.1276   -6.2567    0.0030 H         1 <0>         0.0785
     56 H20         0.8411   -3.9296    0.4766 H         1 <0>         0.0719
     57 H21        -0.2759   -3.8689    1.8611 H         1 <0>         0.0822
     58 H22        -2.5371  -12.2139    1.1388 H         1 <0>         0.1331
     59 H23        -2.2169  -14.2378   -0.2195 H         1 <0>         0.1354
     60 H24         1.0573  -12.3696   -2.2436 H         1 <0>         0.1320
     61 H25         0.7353  -10.3379   -0.8975 H         1 <0>         0.1301
     62 H26         0.5059  -14.8183   -2.4019 H         1 <0>         0.4126
     63 H27        -2.8709  -13.7611   -2.4260 H         1 <0>         0.1242
     64 H28        -4.7959  -15.1896   -2.9827 H         1 <0>         0.1250
     65 H29        -4.4896  -17.6145   -3.2702 H         1 <0>         0.1240
     66 H30        -2.2587  -18.6185   -3.0021 H         1 <0>         0.1268
     67 H31        -0.3246  -17.1977   -2.4570 H         1 <0>         0.1247
     68 H32        -1.9577   -8.8229    6.0303 H         1 <0>         0.2056
     69 H33        -1.0071  -12.4733    2.3527 H         1 <0>         0.4147
     70 H34        -1.6024  -12.8386    3.8807 H         1 <0>         0.4122
     71 H35        -0.9744   -0.3220   -2.5070 H         1 <0>         0.4221
@<TRIPOS>BOND
     1    1    2 1
     2    1   37 1
     3    1   38 1
     4    1   39 1
     5    2    7 1
     6    2    3 1
     7    2   71 1
     8    3    4 1
     9    3   40 1
    10    3   41 1
    11    4    5 1
    12    4   42 1
    13    4   43 1
    14    5    6 1
    15    5    8 1
    16    6    7 1
    17    6   44 1
    18    6   45 1
    19    7   46 1
    20    7   47 1
    21    8   13 1
    22    8    9 1
    23    8   48 1
    24    9   10 1
    25    9   49 1
    26    9   50 1
    27   10   11 1
    28   10   51 1
    29   10   52 1
    30   11   12 1
    31   11   14 1
    32   11   53 1
    33   12   13 1
    34   12   54 1
    35   12   55 1
    36   13   56 1
    37   13   57 1
    38   14   18 1
    39   14   15 1
    40   15   35 ar
    41   15   16 ar
    42   16   17 1
    43   16   32 ar
    44   17   18 2
    45   17   19 1
    46   19   24 ar
    47   19   20 ar
    48   20   21 ar
    49   20   58 1
    50   21   22 ar
    51   21   59 1
    52   22   23 ar
    53   22   25 1
    54   23   24 ar
    55   23   60 1
    56   24   61 1
    57   25   26 1
    58   25   62 1
    59   26   31 ar
    60   26   27 ar
    61   27   28 ar
    62   27   63 1
    63   28   29 ar
    64   28   64 1
    65   29   30 ar
    66   29   65 1
    67   30   31 ar
    68   30   66 1
    69   31   67 1
    70   32   33 ar
    71   32   36 1
    72   33   34 ar
    73   34   35 ar
    74   34   68 1
    75   36   69 1
    76   36   70 1
@<TRIPOS>MOLECULE
CHEMBL46785__1
   71    76     0     0     0
SMALL
USER_CHARGES

@<TRIPOS>ATOM
      1 C1         -1.1933    1.5623   -1.7193 C.3       1 <0>         0.0195
      2 N1         -1.0984    0.0981   -1.6474 N.3       1 <0>        -0.5434
      3 C2         -2.3845   -0.4944   -1.2539 C.3       1 <0>         0.0253
      4 C3         -2.2599   -2.0196   -1.2487 C.3       1 <0>        -0.0066
      5 N2         -1.2072   -2.4218   -0.3066 N.4       1 <0>        -0.3838
      6 C4          0.0756   -1.8426   -0.7265 C.3       1 <0>        -0.0066
      7 C5         -0.0297   -0.3159   -0.7273 C.3       1 <0>         0.0254
      8 C6         -1.1002   -3.8868   -0.2886 C.3       1 <0>         0.0238
      9 C7         -2.4358   -4.4903    0.1506 C.3       1 <0>        -0.1364
     10 C8         -2.3243   -6.0161    0.1694 C.3       1 <0>        -0.1257
     11 C9         -1.2279   -6.4354    1.1507 C.3       1 <0>         0.1719
     12 C10         0.1076   -5.8318    0.7116 C.3       1 <0>        -0.1254
     13 C11        -0.0038   -4.3060    0.6928 C.3       1 <0>        -0.1364
     14 N3         -1.1212   -7.8964    1.1687 N.pl3     1 <0>        -0.3846
     15 C12        -1.3109   -8.6862    2.2633 C.ar      1 <0>         0.3790
     16 C13        -1.1150  -10.0164    1.8466 C.ar      1 <0>        -0.3273
     17 C14        -0.7940   -9.9604    0.4205 C.2       1 <0>         0.1940
     18 N4         -0.8147   -8.6978    0.0638 N.2       1 <0>        -0.2467
     19 C15        -0.5046  -11.1168   -0.4602 C.ar      1 <0>        -0.0738
     20 C16        -1.3034  -12.2585   -0.3989 C.ar      1 <0>        -0.0731
     21 C17        -1.0324  -13.3327   -1.2189 C.ar      1 <0>        -0.1600
     22 C18         0.0367  -13.2790   -2.1064 C.ar      1 <0>         0.2078
     23 C19         0.8346  -12.1420   -2.1689 C.ar      1 <0>        -0.1650
     24 C20         0.5634  -11.0628   -1.3556 C.ar      1 <0>        -0.0446
     25 N5          0.3095  -14.3685   -2.9357 N.pl3     1 <0>        -0.6850
     26 C21        -0.7310  -15.1924   -3.3715 C.ar      1 <0>         0.1701
     27 C22        -2.0016  -14.6653   -3.5663 C.ar      1 <0>        -0.1613
     28 C23        -3.0278  -15.4825   -3.9977 C.ar      1 <0>        -0.0882
     29 C24        -2.7920  -16.8243   -4.2353 C.ar      1 <0>        -0.1463
     30 C25        -1.5286  -17.3525   -4.0420 C.ar      1 <0>        -0.0858
     31 C26        -0.4963  -16.5397   -3.6167 C.ar      1 <0>        -0.1603
     32 C27        -1.2531  -11.0438    2.7939 C.ar      1 <0>         0.5217
     33 N6         -1.5633  -10.7124    4.0436 N.ar      1 <0>        -0.6020
     34 C28        -1.7383   -9.4499    4.3913 C.ar      1 <0>         0.3929
     35 N7         -1.6194   -8.4554    3.5392 N.ar      1 <0>        -0.5824
     36 N8         -1.0717  -12.3658    2.4362 N.pl3     1 <0>        -0.8235
     37 H1         -0.2476    1.9706   -2.0757 H         1 <0>         0.0843
     38 H2         -1.9917    1.8413   -2.4068 H         1 <0>         0.0839
     39 H3         -1.4110    1.9613   -0.7286 H         1 <0>         0.0395
     40 H4         -2.6544   -0.1482   -0.2562 H         1 <0>         0.0604
     41 H5         -3.1554   -0.1949   -1.9640 H         1 <0>         0.1238
     42 H6         -3.2087   -2.4607   -0.9434 H         1 <0>         0.1374
     43 H7         -2.0034   -2.3665   -2.2497 H         1 <0>         0.1381
     44 H8          0.8582   -2.1524   -0.0340 H         1 <0>         0.1373
     45 H9          0.3201   -2.1904   -1.7302 H         1 <0>         0.1381
     46 H10         0.9176    0.1138   -1.0533 H         1 <0>         0.1237
     47 H11        -0.2607    0.0332    0.2791 H         1 <0>         0.0605
     48 H12        -0.8504   -4.2451   -1.2872 H         1 <0>         0.1418
     49 H13        -2.6856   -4.1319    1.1493 H         1 <0>         0.0914
     50 H14        -3.2169   -4.1916   -0.5485 H         1 <0>         0.0962
     51 H15        -3.2758   -6.4461    0.4823 H         1 <0>         0.0899
     52 H16        -2.0745   -6.3745   -0.8292 H         1 <0>         0.0900
     53 H17        -1.4777   -6.0770    2.1494 H         1 <0>         0.1138
     54 H18         0.8887   -6.1305    1.4107 H         1 <0>         0.0900
     55 H19         0.3574   -6.1902   -0.2871 H         1 <0>         0.0898
     56 H20         0.9477   -3.8760    0.3799 H         1 <0>         0.0962
     57 H21        -0.2536   -3.9476    1.6914 H         1 <0>         0.0914
     58 H22        -2.1334  -12.3009    0.2907 H         1 <0>         0.1328
     59 H23        -1.6506  -14.2170   -1.1719 H         1 <0>         0.1361
     60 H24         1.6647  -12.1027   -2.8587 H         1 <0>         0.1329
     61 H25         1.1805  -10.1781   -1.4079 H         1 <0>         0.1301
     62 H26         1.2216  -14.5533   -3.2092 H         1 <0>         0.4131
     63 H27        -2.1866  -13.6176   -3.3803 H         1 <0>         0.1239
     64 H28        -4.0157  -15.0734   -4.1493 H         1 <0>         0.1253
     65 H29        -3.5964  -17.4613   -4.5722 H         1 <0>         0.1245
     66 H30        -1.3481  -18.4009   -4.2278 H         1 <0>         0.1273
     67 H31         0.4911  -16.9518   -3.4701 H         1 <0>         0.1250
     68 H32        -1.9898   -9.2255    5.4173 H         1 <0>         0.2066
     69 H33        -0.6716  -12.5862    1.5805 H         1 <0>         0.4155
     70 H34        -1.3445  -13.0736    3.0407 H         1 <0>         0.4134
     71 H35        -1.4390   -2.0905    0.6179 H         1 <0>         0.4185
@<TRIPOS>BOND
     1    1    2 1
     2    1   37 1
     3    1   38 1
     4    1   39 1
     5    2    7 1
     6    2    3 1
     7    3    4 1
     8    3   40 1
     9    3   41 1
    10    4    5 1
    11    4   42 1
    12    4   43 1
    13    5    6 1
    14    5    8 1
    15    5   71 1
    16    6    7 1
    17    6   44 1
    18    6   45 1
    19    7   46 1
    20    7   47 1
    21    8   13 1
    22    8    9 1
    23    8   48 1
    24    9   10 1
    25    9   49 1
    26    9   50 1
    27   10   11 1
    28   10   51 1
    29   10   52 1
    30   11   12 1
    31   11   14 1
    32   11   53 1
    33   12   13 1
    34   12   54 1
    35   12   55 1
    36   13   56 1
    37   13   57 1
    38   14   18 1
    39   14   15 1
    40   15   35 ar
    41   15   16 ar
    42   16   17 1
    43   16   32 ar
    44   17   18 2
    45   17   19 1
    46   19   24 ar
    47   19   20 ar
    48   20   21 ar
    49   20   58 1
    50   21   22 ar
    51   21   59 1
    52   22   23 ar
    53   22   25 1
    54   23   24 ar
    55   23   60 1
    56   24   61 1
    57   25   26 1
    58   25   62 1
    59   26   31 ar
    60   26   27 ar
    61   27   28 ar
    62   27   63 1
    63   28   29 ar
    64   28   64 1
    65   29   30 ar
    66   29   65 1
    67   30   31 ar
    68   30   66 1
    69   31   67 1
    70   32   33 ar
    71   32   36 1
    72   33   34 ar
    73   34   35 ar
    74   34   68 1
    75   36   69 1
    76   36   70 1
@<TRIPOS>MOLECULE
CHEMBL45683
   78    84     0     0     0
SMALL
USER_CHARGES

@<TRIPOS>ATOM
      1 C1         -2.7607    1.2330   -0.9216 C.3       1 <0>        -0.0458
      2 N1         -2.5366   -0.2176   -0.8626 N.4       1 <0>        -0.3885
      3 C2         -3.7583   -0.8828   -0.3908 C.3       1 <0>        -0.0020
      4 C3         -3.5314   -2.3955   -0.3472 C.3       1 <0>         0.0200
      5 N2         -2.4106   -2.6940    0.5555 N.3       1 <0>        -0.5346
      6 C4         -1.1860   -2.0146    0.1096 C.3       1 <0>         0.0194
      7 C5         -1.4322   -0.5050    0.0623 C.3       1 <0>        -0.0021
      8 C6         -2.1973   -4.1431    0.6685 C.3       1 <0>         0.0860
      9 C7         -3.4619   -4.8031    1.2216 C.3       1 <0>        -0.1098
     10 C8         -3.2397   -6.3123    1.3393 C.3       1 <0>        -0.1270
     11 C9         -2.0678   -6.5831    2.2850 C.3       1 <0>         0.1748
     12 C10        -0.8032   -5.9230    1.7319 C.3       1 <0>        -0.1265
     13 C11        -1.0254   -4.4138    1.6142 C.3       1 <0>        -0.1113
     14 N3         -1.8551   -8.0281    2.3977 N.pl3     1 <0>        -0.3802
     15 C12        -1.9319   -8.7475    3.5529 C.ar      1 <0>         0.3761
     16 C13        -1.6616  -10.0878    3.2187 C.ar      1 <0>        -0.3266
     17 C14        -1.4178  -10.1138    1.7766 C.2       1 <0>         0.1903
     18 N4         -1.5476   -8.8849    1.3354 N.2       1 <0>        -0.2466
     19 C15        -1.0911  -11.3088    0.9629 C.ar      1 <0>        -0.0934
     20 C16        -1.8076  -12.4920    1.1408 C.ar      1 <0>        -0.0558
     21 C17        -1.5023  -13.6019    0.3825 C.ar      1 <0>        -0.1894
     22 C18        -0.4808  -13.5426   -0.5587 C.ar      1 <0>         0.2349
     23 C19         0.2351  -12.3644   -0.7375 C.ar      1 <0>        -0.1964
     24 C20        -0.0707  -11.2500    0.0141 C.ar      1 <0>        -0.0312
     25 N5         -0.1732  -14.6680   -1.3251 N.pl3     1 <0>        -0.7394
     26 C21         0.9029  -14.6067   -2.3172 C.3       1 <0>         0.1876
     27 C22         1.0309  -15.9427   -3.0026 C.2       1 <0>         0.0492
     28 C23         1.8834  -16.9151   -2.6425 C.2       1 <0>        -0.1666
     29 C24         1.6762  -18.0309   -3.5687 C.ar      1 <0>        -0.1154
     30 C25         2.2491  -19.2968   -3.7066 C.ar      1 <0>        -0.0671
     31 C26         1.8237  -20.1288   -4.7033 C.ar      1 <0>        -0.1449
     32 C27         0.8261  -19.7258   -5.5806 C.ar      1 <0>        -0.0909
     33 C28         0.2474  -18.4813   -5.4627 C.ar      1 <0>        -0.1332
     34 C29         0.6650  -17.6178   -4.4550 C.ar      1 <0>         0.1039
     35 N6          0.2912  -16.3466   -4.0806 N.pl3     1 <0>        -0.5887
     36 H1         -0.3933  -15.8157   -4.5171 H         1 <0>         0.4146
     37 C30        -1.6779  -11.0508    4.2407 C.ar      1 <0>         0.5198
     38 N7         -1.9484  -10.6516    5.4798 N.ar      1 <0>        -0.6040
     39 C31        -2.1964   -9.3822    5.7487 C.ar      1 <0>         0.3884
     40 N8         -2.1915   -8.4463    4.8250 N.ar      1 <0>        -0.5793
     41 N9         -1.4197  -12.3798    3.9655 N.pl3     1 <0>        -0.8266
     42 H2         -1.8546    1.7266   -1.2729 H         1 <0>         0.1240
     43 H3         -3.5802    1.4464   -1.6078 H         1 <0>         0.1239
     44 H4         -3.0136    1.6022    0.0723 H         1 <0>         0.1232
     45 H5         -4.0049   -0.5234    0.6082 H         1 <0>         0.1379
     46 H6         -4.5800   -0.6581   -1.0709 H         1 <0>         0.1352
     47 H7         -4.4329   -2.8881    0.0170 H         1 <0>         0.1266
     48 H8         -3.2981   -2.7573   -1.3486 H         1 <0>         0.0604
     49 H9         -0.3764   -2.2293    0.8072 H         1 <0>         0.1273
     50 H10        -0.9141   -2.3701   -0.8842 H         1 <0>         0.0604
     51 H11        -0.5295   -0.0002   -0.2818 H         1 <0>         0.1352
     52 H12        -1.6908   -0.1476    1.0590 H         1 <0>         0.1379
     53 H13        -1.9729   -4.5551   -0.3153 H         1 <0>         0.0568
     54 H14        -3.6863   -4.3911    2.2055 H         1 <0>         0.0819
     55 H15        -4.2968   -4.6102    0.5479 H         1 <0>         0.0712
     56 H16        -4.1407   -6.7826    1.7334 H         1 <0>         0.0758
     57 H17        -3.0154   -6.7244    0.3555 H         1 <0>         0.0784
     58 H18        -2.2922   -6.1710    3.2688 H         1 <0>         0.1108
     59 H19         0.0317   -6.1159    2.4056 H         1 <0>         0.0760
     60 H20        -0.5788   -6.3351    0.7480 H         1 <0>         0.0784
     61 H21        -0.1244   -3.9436    1.2201 H         1 <0>         0.0717
     62 H22        -1.2497   -4.0017    2.5980 H         1 <0>         0.0821
     63 H23        -2.6007  -12.5388    1.8723 H         1 <0>         0.1299
     64 H24        -2.0568  -14.5185    0.5199 H         1 <0>         0.1297
     65 H25         1.0286  -12.3208   -1.4688 H         1 <0>         0.1282
     66 H26         0.4825  -10.3335   -0.1286 H         1 <0>         0.1262
     67 H27        -0.6720  -15.4905   -1.2007 H         1 <0>         0.4057
     68 H28         0.6723  -13.8397   -3.0565 H         1 <0>         0.0727
     69 H29         1.8417  -14.3619   -1.8204 H         1 <0>         0.0904
     70 H30         2.5883  -16.8812   -1.8250 H         1 <0>         0.1490
     71 H31         3.0259  -19.6170   -3.0280 H         1 <0>         0.1242
     72 H32         2.2674  -21.1077   -4.8098 H         1 <0>         0.1254
     73 H33         0.5007  -20.3945   -6.3638 H         1 <0>         0.1278
     74 H34        -0.5278  -18.1769   -6.1503 H         1 <0>         0.1207
     75 H35        -2.4118   -9.1016    6.7691 H         1 <0>         0.2049
     76 H36        -1.0038  -12.6292    3.1254 H         1 <0>         0.4152
     77 H37        -1.6544  -13.0635    4.6123 H         1 <0>         0.4117
     78 H38        -2.3020   -0.5592   -1.7826 H         1 <0>         0.4221
@<TRIPOS>BOND
     1    1    2 1
     2    1   42 1
     3    1   43 1
     4    1   44 1
     5    2    7 1
     6    2    3 1
     7    2   78 1
     8    3    4 1
     9    3   45 1
    10    3   46 1
    11    4    5 1
    12    4   47 1
    13    4   48 1
    14    5    6 1
    15    5    8 1
    16    6    7 1
    17    6   49 1
    18    6   50 1
    19    7   51 1
    20    7   52 1
    21    8   13 1
    22    8    9 1
    23    8   53 1
    24    9   10 1
    25    9   54 1
    26    9   55 1
    27   10   11 1
    28   10   56 1
    29   10   57 1
    30   11   12 1
    31   11   14 1
    32   11   58 1
    33   12   13 1
    34   12   59 1
    35   12   60 1
    36   13   61 1
    37   13   62 1
    38   14   18 1
    39   14   15 1
    40   15   40 ar
    41   15   16 ar
    42   16   17 1
    43   16   37 ar
    44   17   18 2
    45   17   19 1
    46   19   24 ar
    47   19   20 ar
    48   20   21 ar
    49   20   63 1
    50   21   22 ar
    51   21   64 1
    52   22   23 ar
    53   22   25 1
    54   23   24 ar
    55   23   65 1
    56   24   66 1
    57   25   26 1
    58   25   67 1
    59   26   27 1
    60   26   68 1
    61   26   69 1
    62   27   35 1
    63   27   28 2
    64   28   29 1
    65   28   70 1
    66   29   34 ar
    67   29   30 ar
    68   30   31 ar
    69   30   71 1
    70   31   32 ar
    71   31   72 1
    72   32   33 ar
    73   32   73 1
    74   33   34 ar
    75   33   74 1
    76   34   35 1
    77   35   36 1
    78   37   38 ar
    79   37   41 1
    80   38   39 ar
    81   39   40 ar
    82   39   75 1
    83   41   76 1
    84   41   77 1
@<TRIPOS>MOLECULE
CHEMBL45683__1
   78    84     0     0     0
SMALL
USER_CHARGES

@<TRIPOS>ATOM
      1 C1         -2.7436    1.1864   -1.1183 C.3       1 <0>         0.0194
      2 N1         -2.4931   -0.2585   -1.0317 N.3       1 <0>        -0.5435
      3 C2         -3.7135   -0.9826   -0.6492 C.3       1 <0>         0.0254
      4 C3         -3.4260   -2.4854   -0.6284 C.3       1 <0>        -0.0066
      5 N2         -2.3492   -2.7649    0.3308 N.4       1 <0>        -0.3838
      6 C4         -1.1303   -2.0546   -0.0782 C.3       1 <0>        -0.0066
      7 C5         -1.3988   -0.5481   -0.0944 C.3       1 <0>         0.0255
      8 C6         -2.0859   -4.2097    0.3636 C.3       1 <0>         0.0238
      9 C7         -3.3549   -4.9498    0.7914 C.3       1 <0>        -0.1364
     10 C8         -3.0806   -6.4546    0.8256 C.3       1 <0>        -0.1255
     11 C9         -1.9590   -6.7460    1.8246 C.3       1 <0>         0.1723
     12 C10        -0.6901   -6.0060    1.3969 C.3       1 <0>        -0.1252
     13 C11        -0.9643   -4.5011    1.3627 C.3       1 <0>        -0.1364
     14 N3         -1.6965   -8.1869    1.8574 N.pl3     1 <0>        -0.3858
     15 C12        -1.8152   -8.9840    2.9567 C.ar      1 <0>         0.3775
     16 C13        -1.4721  -10.2886    2.5547 C.ar      1 <0>        -0.3266
     17 C14        -1.1395  -10.2096    1.1325 C.2       1 <0>         0.2001
     18 N4         -1.2907   -8.9594    0.7640 N.2       1 <0>        -0.2510
     19 C15        -0.7165  -11.3352    0.2660 C.ar      1 <0>        -0.0993
     20 C16        -1.3950  -12.5524    0.3213 C.ar      1 <0>        -0.0550
     21 C17        -1.0000  -13.5977   -0.4859 C.ar      1 <0>        -0.1896
     22 C18         0.0740  -13.4394   -1.3543 C.ar      1 <0>         0.2376
     23 C19         0.7522  -12.2272   -1.4109 C.ar      1 <0>        -0.1966
     24 C20         0.3570  -11.1770   -0.6101 C.ar      1 <0>        -0.0297
     25 N5          0.4724  -14.4995   -2.1704 N.pl3     1 <0>        -0.7383
     26 C21         1.6040  -14.3339   -3.0859 C.3       1 <0>         0.1873
     27 C22         1.8266  -15.6158   -3.8463 C.2       1 <0>         0.0479
     28 C23         2.6933  -16.5791   -3.4960 C.2       1 <0>        -0.1659
     29 C24         2.5877  -17.6373   -4.5034 C.ar      1 <0>        -0.1157
     30 C25         3.2177  -18.8700   -4.6857 C.ar      1 <0>        -0.0671
     31 C26         2.8876  -19.6482   -5.7590 C.ar      1 <0>        -0.1446
     32 C27         1.9303  -19.2233   -6.6704 C.ar      1 <0>        -0.0904
     33 C28         1.2965  -18.0109   -6.5096 C.ar      1 <0>        -0.1333
     34 C29         1.6171  -17.2021   -5.4239 C.ar      1 <0>         0.1041
     35 N6          1.1709  -15.9729   -4.9930 N.pl3     1 <0>        -0.5887
     36 H1          0.4940  -15.4388   -5.4372 H         1 <0>         0.4146
     37 C30        -1.5127  -11.3177    3.5095 C.ar      1 <0>         0.5213
     38 N7         -1.8742  -11.0119    4.7520 N.ar      1 <0>        -0.6019
     39 C31        -2.1884   -9.7729    5.0857 C.ar      1 <0>         0.3914
     40 N8         -2.1641   -8.7778    4.2264 N.ar      1 <0>        -0.5823
     41 N9         -1.1857  -12.6153    3.1663 N.pl3     1 <0>        -0.8246
     42 H2         -1.8424    1.6912   -1.4664 H         1 <0>         0.0843
     43 H3         -3.5579    1.3727   -1.8185 H         1 <0>         0.0838
     44 H4         -3.0163    1.5675   -0.1342 H         1 <0>         0.0395
     45 H5         -4.0325   -0.6596    0.3418 H         1 <0>         0.0604
     46 H6         -4.5023   -0.7732   -1.3717 H         1 <0>         0.1237
     47 H7         -4.3261   -3.0235   -0.3310 H         1 <0>         0.1373
     48 H8         -3.1202   -2.8106   -1.6228 H         1 <0>         0.1381
     49 H9         -0.3285   -2.2732    0.6271 H         1 <0>         0.1374
     50 H10        -0.8363   -2.3819   -1.0754 H         1 <0>         0.1381
     51 H11        -0.4988   -0.0217   -0.4122 H         1 <0>         0.1237
     52 H12        -1.6796   -0.2180    0.9057 H         1 <0>         0.0605
     53 H13        -1.7855   -4.5470   -0.6284 H         1 <0>         0.1417
     54 H14        -3.6552   -4.6125    1.7834 H         1 <0>         0.0912
     55 H15        -4.1539   -4.7422    0.0797 H         1 <0>         0.0959
     56 H16        -3.9847   -6.9819    1.1303 H         1 <0>         0.0896
     57 H17        -2.7803   -6.7919   -0.1664 H         1 <0>         0.0898
     58 H18        -2.2594   -6.4088    2.8167 H         1 <0>         0.1131
     59 H19         0.1090   -6.2136    2.1086 H         1 <0>         0.0899
     60 H20        -0.3897   -6.3432    0.4049 H         1 <0>         0.0898
     61 H21        -0.0603   -3.9739    1.0579 H         1 <0>         0.0960
     62 H22        -1.2647   -4.1639    2.3547 H         1 <0>         0.0912
     63 H23        -2.2290  -12.6761    0.9963 H         1 <0>         0.1297
     64 H24        -1.5252  -14.5405   -0.4434 H         1 <0>         0.1304
     65 H25         1.5867  -12.1067   -2.0858 H         1 <0>         0.1291
     66 H26         0.8811  -10.2339   -0.6579 H         1 <0>         0.1262
     67 H27        -0.0001  -15.3457   -2.1313 H         1 <0>         0.4062
     68 H28         1.3889  -13.5280   -3.7875 H         1 <0>         0.0733
     69 H29         2.5001  -14.0896   -2.5155 H         1 <0>         0.0908
     70 H30         3.3449  -16.5748   -2.6347 H         1 <0>         0.1490
     71 H31         3.9636  -19.2069   -3.9810 H         1 <0>         0.1242
     72 H32         3.3754  -20.6014   -5.8998 H         1 <0>         0.1256
     73 H33         1.6803  -19.8494   -7.5140 H         1 <0>         0.1281
     74 H34         0.5535  -17.6890   -7.2243 H         1 <0>         0.1209
     75 H35        -2.4769   -9.5688    6.1063 H         1 <0>         0.2059
     76 H36        -0.7095  -12.7931    2.3402 H         1 <0>         0.4160
     77 H37        -1.4322  -13.3486    3.7515 H         1 <0>         0.4129
     78 H38        -2.6278   -2.4532    1.2491 H         1 <0>         0.4185
@<TRIPOS>BOND
     1    1    2 1
     2    1   42 1
     3    1   43 1
     4    1   44 1
     5    2    7 1
     6    2    3 1
     7    3    4 1
     8    3   45 1
     9    3   46 1
    10    4    5 1
    11    4   47 1
    12    4   48 1
    13    5    6 1
    14    5    8 1
    15    5   78 1
    16    6    7 1
    17    6   49 1
    18    6   50 1
    19    7   51 1
    20    7   52 1
    21    8   13 1
    22    8    9 1
    23    8   53 1
    24    9   10 1
    25    9   54 1
    26    9   55 1
    27   10   11 1
    28   10   56 1
    29   10   57 1
    30   11   12 1
    31   11   14 1
    32   11   58 1
    33   12   13 1
    34   12   59 1
    35   12   60 1
    36   13   61 1
    37   13   62 1
    38   14   18 1
    39   14   15 1
    40   15   40 ar
    41   15   16 ar
    42   16   17 1
    43   16   37 ar
    44   17   18 2
    45   17   19 1
    46   19   24 ar
    47   19   20 ar
    48   20   21 ar
    49   20   63 1
    50   21   22 ar
    51   21   64 1
    52   22   23 ar
    53   22   25 1
    54   23   24 ar
    55   23   65 1
    56   24   66 1
    57   25   26 1
    58   25   67 1
    59   26   27 1
    60   26   68 1
    61   26   69 1
    62   27   35 1
    63   27   28 2
    64   28   29 1
    65   28   70 1
    66   29   34 ar
    67   29   30 ar
    68   30   31 ar
    69   30   71 1
    70   31   32 ar
    71   31   72 1
    72   32   33 ar
    73   32   73 1
    74   33   34 ar
    75   33   74 1
    76   34   35 1
    77   35   36 1
    78   37   38 ar
    79   37   41 1
    80   38   39 ar
    81   39   40 ar
    82   39   75 1
    83   41   76 1
    84   41   77 1
@<TRIPOS>MOLECULE
CHEMBL46176
   80    85     0     0     0
SMALL
USER_CHARGES

@<TRIPOS>ATOM
      1 C1         -2.7632    1.6364   -1.6801 C.3       1 <0>        -0.0459
      2 N1         -2.5693    0.1803   -1.6628 N.4       1 <0>        -0.3885
      3 C2         -3.8132   -0.4740   -1.2360 C.3       1 <0>        -0.0021
      4 C3         -3.6174   -1.9917   -1.2359 C.3       1 <0>         0.0202
      5 N2         -2.5210   -2.3413   -0.3217 N.3       1 <0>        -0.5347
      6 C4         -1.2744   -1.6735   -0.7221 C.3       1 <0>         0.0195
      7 C5         -1.4895   -0.1584   -0.7264 C.3       1 <0>        -0.0022
      8 C6         -2.3389   -3.7972   -0.2505 C.3       1 <0>         0.0860
      9 C7         -3.6272   -4.4481    0.2569 C.3       1 <0>        -0.1101
     10 C8         -3.4375   -5.9645    0.3310 C.3       1 <0>        -0.1272
     11 C9         -2.2903   -6.2887    1.2900 C.3       1 <0>         0.1736
     12 C10        -1.0020   -5.6378    0.7826 C.3       1 <0>        -0.1267
     13 C11        -1.1917   -4.1214    0.7085 C.3       1 <0>        -0.1116
     14 N3         -2.1087   -7.7407    1.3610 N.pl3     1 <0>        -0.3769
     15 C12        -2.2228   -8.4941    2.4912 C.ar      1 <0>         0.3794
     16 C13        -1.9727   -9.8286    2.1199 C.ar      1 <0>        -0.3259
     17 C14        -1.7008   -9.8145    0.6827 C.2       1 <0>         0.1751
     18 N4         -1.7973   -8.5699    0.2782 N.2       1 <0>        -0.2359
     19 C15        -1.3812  -10.9898   -0.1619 C.ar      1 <0>        -0.0028
     20 C16        -2.1129  -12.1685   -0.0233 C.ar      1 <0>        -0.1100
     21 C17        -1.8150  -13.2626   -0.8091 C.ar      1 <0>        -0.1286
     22 C18        -0.7866  -13.1927   -1.7393 C.ar      1 <0>         0.1580
     23 C19        -0.0523  -12.0161   -1.8820 C.ar      1 <0>         0.1186
     24 C20        -0.3520  -10.9160   -1.1002 C.ar      1 <0>        -0.1461
     25 O1          0.9551  -11.9491   -2.7934 O.3       1 <0>        -0.3082
     26 C21         1.6652  -10.7124   -2.8857 C.3       1 <0>         0.0247
     27 N5         -0.4866  -14.3040   -2.5337 N.pl3     1 <0>        -1.0541
     28 S1         -0.6412  -15.8315   -1.9130 S.o2      1 <0>         2.7815
     29 O2         -0.2553  -16.7298   -2.9442 O.2       1 <0>        -0.9462
     30 O3         -0.0113  -15.8179   -0.6393 O.2       1 <0>        -0.9505
     31 N6         -2.2543  -16.0884   -1.6406 N.pl3     1 <0>        -1.0662
     32 C22        -3.1461  -16.1291   -2.7147 C.ar      1 <0>         0.1520
     33 C23        -3.0660  -15.1764   -3.7225 C.ar      1 <0>        -0.1642
     34 C24        -3.9491  -15.2198   -4.7834 C.ar      1 <0>        -0.0886
     35 C25        -4.9127  -16.2099   -4.8429 C.ar      1 <0>        -0.1278
     36 C26        -4.9952  -17.1599   -3.8414 C.ar      1 <0>        -0.0927
     37 C27        -4.1115  -17.1257   -2.7806 C.ar      1 <0>        -0.1278
     38 C28        -2.0283  -10.8225    3.1104 C.ar      1 <0>         0.5209
     39 N7         -2.3151  -10.4567    4.3561 N.ar      1 <0>        -0.6020
     40 C29        -2.5431   -9.1915    4.6603 C.ar      1 <0>         0.3921
     41 N8         -2.5021   -8.2276    3.7668 N.ar      1 <0>        -0.5789
     42 N9         -1.7912  -12.1473    2.7983 N.pl3     1 <0>        -0.8244
     43 H1         -1.8407    2.1220   -1.9980 H         1 <0>         0.1241
     44 H2         -3.5645    1.8880   -2.3749 H         1 <0>         0.1241
     45 H3         -3.0285    1.9795   -0.6800 H         1 <0>         0.1233
     46 H4         -4.0724   -0.1411   -0.2310 H         1 <0>         0.1380
     47 H5         -4.6165   -0.2113   -1.9242 H         1 <0>         0.1354
     48 H6         -4.5356   -2.4768   -0.9049 H         1 <0>         0.1267
     49 H7         -3.3715   -2.3267   -2.2436 H         1 <0>         0.0605
     50 H8         -0.4834   -1.9265   -0.0162 H         1 <0>         0.1272
     51 H9         -0.9899   -2.0033   -1.7213 H         1 <0>         0.0604
     52 H10        -0.5703    0.3382   -1.0368 H         1 <0>         0.1353
     53 H11        -1.7607    0.1729    0.2760 H         1 <0>         0.1380
     54 H12        -2.1033   -4.1828   -1.2424 H         1 <0>         0.0566
     55 H13        -3.8629   -4.0625    1.2488 H         1 <0>         0.0824
     56 H14        -4.4445   -4.2171   -0.4263 H         1 <0>         0.0720
     57 H15        -4.3554   -6.4282    0.6925 H         1 <0>         0.0768
     58 H16        -3.2019   -6.3501   -0.6609 H         1 <0>         0.0784
     59 H17        -2.5260   -5.9031    2.2819 H         1 <0>         0.1128
     60 H18        -0.1847   -5.8688    1.4658 H         1 <0>         0.0765
     61 H19        -0.7664   -6.0234   -0.2093 H         1 <0>         0.0780
     62 H20        -0.2739   -3.6577    0.3470 H         1 <0>         0.0722
     63 H21        -1.4273   -3.7358    1.7004 H         1 <0>         0.0827
     64 H22        -2.9130  -12.2253    0.6999 H         1 <0>         0.1434
     65 H23        -2.3824  -14.1751   -0.7003 H         1 <0>         0.1438
     66 H24         0.2132  -10.0025   -1.2124 H         1 <0>         0.1426
     67 H25         2.4399  -10.7943   -3.6481 H         1 <0>         0.1069
     68 H26         0.9727   -9.9151   -3.1555 H         1 <0>         0.0583
     69 H27         2.1247  -10.4846   -1.9239 H         1 <0>         0.0592
     70 H28        -0.1881  -14.1800   -3.4482 H         1 <0>         0.4337
     71 H29        -2.5797  -16.2107   -0.7350 H         1 <0>         0.4277
     72 H30        -2.3142  -14.4024   -3.6762 H         1 <0>         0.1298
     73 H31        -3.8874  -14.4794   -5.5672 H         1 <0>         0.1300
     74 H32        -5.6025  -16.2412   -5.6733 H         1 <0>         0.1284
     75 H33        -5.7489  -17.9318   -3.8910 H         1 <0>         0.1314
     76 H34        -4.1737  -17.8706   -2.0010 H         1 <0>         0.1316
     77 H35        -2.7726   -8.9385    5.6849 H         1 <0>         0.2066
     78 H36        -1.4201  -12.3829    1.9336 H         1 <0>         0.4148
     79 H37        -1.9959  -12.8418    3.4438 H         1 <0>         0.4138
     80 H38        -2.3233   -0.1370   -2.5885 H         1 <0>         0.4221
@<TRIPOS>BOND
     1    1    2 1
     2    1   43 1
     3    1   44 1
     4    1   45 1
     5    2    7 1
     6    2    3 1
     7    2   80 1
     8    3    4 1
     9    3   46 1
    10    3   47 1
    11    4    5 1
    12    4   48 1
    13    4   49 1
    14    5    6 1
    15    5    8 1
    16    6    7 1
    17    6   50 1
    18    6   51 1
    19    7   52 1
    20    7   53 1
    21    8   13 1
    22    8    9 1
    23    8   54 1
    24    9   10 1
    25    9   55 1
    26    9   56 1
    27   10   11 1
    28   10   57 1
    29   10   58 1
    30   11   12 1
    31   11   14 1
    32   11   59 1
    33   12   13 1
    34   12   60 1
    35   12   61 1
    36   13   62 1
    37   13   63 1
    38   14   18 1
    39   14   15 1
    40   15   41 ar
    41   15   16 ar
    42   16   17 1
    43   16   38 ar
    44   17   18 2
    45   17   19 1
    46   19   24 ar
    47   19   20 ar
    48   20   21 ar
    49   20   64 1
    50   21   22 ar
    51   21   65 1
    52   22   23 ar
    53   22   27 1
    54   23   24 ar
    55   23   25 1
    56   24   66 1
    57   25   26 1
    58   26   67 1
    59   26   68 1
    60   26   69 1
    61   27   28 1
    62   27   70 1
    63   28   29 2
    64   28   30 2
    65   28   31 1
    66   31   32 1
    67   31   71 1
    68   32   37 ar
    69   32   33 ar
    70   33   34 ar
    71   33   72 1
    72   34   35 ar
    73   34   73 1
    74   35   36 ar
    75   35   74 1
    76   36   37 ar
    77   36   75 1
    78   37   76 1
    79   38   39 ar
    80   38   42 1
    81   39   40 ar
    82   40   41 ar
    83   40   77 1
    84   42   78 1
    85   42   79 1
@<TRIPOS>MOLECULE
CHEMBL46176__1
   80    85     0     0     0
SMALL
USER_CHARGES

@<TRIPOS>ATOM
      1 C1         -2.7130    1.6458   -1.8491 C.3       1 <0>         0.0194
      2 N1         -2.4918    0.1942   -1.8069 N.3       1 <0>        -0.5434
      3 C2         -3.7323   -0.5181   -1.4693 C.3       1 <0>         0.0252
      4 C3         -3.4740   -2.0262   -1.4942 C.3       1 <0>        -0.0066
      5 N2         -2.4196   -2.3585   -0.5271 N.4       1 <0>        -0.3839
      6 C4         -1.1804   -1.6591   -0.8915 C.3       1 <0>        -0.0065
      7 C5         -1.4196   -0.1480   -0.8616 C.3       1 <0>         0.0253
      8 C6         -2.1846   -3.8086   -0.5384 C.3       1 <0>         0.0238
      9 C7         -3.4747   -4.5373   -0.1571 C.3       1 <0>        -0.1367
     10 C8         -3.2299   -6.0475   -0.1688 C.3       1 <0>        -0.1257
     11 C9         -2.1317   -6.3940    0.8385 C.3       1 <0>         0.1712
     12 C10        -0.8415   -5.6653    0.4572 C.3       1 <0>        -0.1254
     13 C11        -1.0863   -4.1551    0.4689 C.3       1 <0>        -0.1367
     14 N3         -1.8973   -7.8401    0.8273 N.pl3     1 <0>        -0.3826
     15 C12        -2.0504   -8.6708    1.8971 C.ar      1 <0>         0.3809
     16 C13        -1.7253   -9.9679    1.4573 C.ar      1 <0>        -0.3261
     17 C14        -1.3667   -9.8482    0.0443 C.2       1 <0>         0.1850
     18 N4         -1.4874   -8.5836   -0.2845 N.2       1 <0>        -0.2401
     19 C15        -0.9495  -10.9524   -0.8521 C.ar      1 <0>        -0.0082
     20 C16        -1.6410  -12.1631   -0.8366 C.ar      1 <0>        -0.1092
     21 C17        -1.2523  -13.1910   -1.6706 C.ar      1 <0>        -0.1288
     22 C18        -0.1725  -13.0226   -2.5270 C.ar      1 <0>         0.1611
     23 C19         0.5219  -11.8137   -2.5466 C.ar      1 <0>         0.1189
     24 C20         0.1315  -10.7796   -1.7162 C.ar      1 <0>        -0.1453
     25 O1          1.5798  -11.6503   -3.3857 O.3       1 <0>        -0.3074
     26 C21         2.2446  -10.3857   -3.3528 C.3       1 <0>         0.0248
     27 N5          0.2194  -14.0670   -3.3706 N.pl3     1 <0>        -1.0543
     28 S1          0.0879  -15.6371   -2.8606 S.o2      1 <0>         2.7811
     29 O2          0.5715  -16.4503   -3.9208 O.2       1 <0>        -0.9449
     30 O3          0.6375  -15.6862   -1.5511 O.2       1 <0>        -0.9505
     31 N6         -1.5274  -15.9688   -2.7086 N.pl3     1 <0>        -1.0661
     32 C22        -2.3495  -15.9694   -3.8378 C.ar      1 <0>         0.1512
     33 C23        -2.2457  -14.9493   -4.7750 C.ar      1 <0>        -0.1644
     34 C24        -3.0598  -14.9532   -5.8906 C.ar      1 <0>        -0.0885
     35 C25        -3.9778  -15.9708   -6.0750 C.ar      1 <0>        -0.1272
     36 C26        -4.0837  -16.9878   -5.1441 C.ar      1 <0>        -0.0925
     37 C27        -3.2688  -16.9931   -4.0291 C.ar      1 <0>        -0.1276
     38 C28        -1.8020  -11.0270    2.3763 C.ar      1 <0>         0.5224
     39 N7         -2.1789  -10.7556    3.6221 N.ar      1 <0>        -0.5999
     40 C29        -2.4751   -9.5225    3.9920 C.ar      1 <0>         0.3952
     41 N8         -2.4176   -8.5002    3.1668 N.ar      1 <0>        -0.5819
     42 N9         -1.4939  -12.3187    1.9952 N.pl3     1 <0>        -0.8223
     43 H1         -1.7964    2.1440   -2.1649 H         1 <0>         0.0844
     44 H2         -3.5113    1.8713   -2.5562 H         1 <0>         0.0840
     45 H3         -2.9955    1.9992   -0.8574 H         1 <0>         0.0397
     46 H4         -4.0622   -0.2220   -0.4736 H         1 <0>         0.0605
     47 H5         -4.5042   -0.2693   -2.1976 H         1 <0>         0.1239
     48 H6         -4.3892   -2.5560   -1.2302 H         1 <0>         0.1374
     49 H7         -3.1572   -2.3241   -2.4938 H         1 <0>         0.1382
     50 H8         -0.3953   -1.9168   -0.1807 H         1 <0>         0.1372
     51 H9         -0.8754   -1.9589   -1.8941 H         1 <0>         0.1380
     52 H10        -0.5043    0.3708   -1.1465 H         1 <0>         0.1238
     53 H11        -1.7115    0.1542    0.1442 H         1 <0>         0.0606
     54 H12        -1.8735   -4.1185   -1.5360 H         1 <0>         0.1416
     55 H13        -3.7858   -4.2274    0.8406 H         1 <0>         0.0918
     56 H14        -4.2571   -4.2904   -0.8747 H         1 <0>         0.0966
     57 H15        -4.1491   -6.5667    0.1029 H         1 <0>         0.0906
     58 H16        -2.9189   -6.3575   -1.1664 H         1 <0>         0.0899
     59 H17        -2.4428   -6.0841    1.8362 H         1 <0>         0.1152
     60 H18        -0.0591   -5.9122    1.1748 H         1 <0>         0.0904
     61 H19        -0.5305   -5.9752   -0.5404 H         1 <0>         0.0893
     62 H20        -0.1672   -3.6359    0.1973 H         1 <0>         0.0965
     63 H21        -1.3974   -3.8451    1.4666 H         1 <0>         0.0919
     64 H22        -2.4810  -12.2963   -0.1710 H         1 <0>         0.1433
     65 H23        -1.7887  -14.1282   -1.6572 H         1 <0>         0.1445
     66 H24         0.6658   -9.8412   -1.7332 H         1 <0>         0.1426
     67 H25         1.5388   -9.5973   -3.6143 H         1 <0>         0.0583
     68 H26         2.6349  -10.2064   -2.3510 H         1 <0>         0.0591
     69 H27         3.0671  -10.3890   -4.0680 H         1 <0>         0.1077
     70 H28         0.5683  -13.8718   -4.2543 H         1 <0>         0.4343
     71 H29        -1.9027  -16.1627   -1.8354 H         1 <0>         0.4276
     72 H30        -1.5294  -14.1539   -4.6312 H         1 <0>         0.1294
     73 H31        -2.9795  -14.1604   -6.6196 H         1 <0>         0.1302
     74 H32        -4.6137  -15.9711   -6.9480 H         1 <0>         0.1288
     75 H33        -4.8018  -17.7810   -5.2911 H         1 <0>         0.1316
     76 H34        -3.3489  -17.7901   -3.3046 H         1 <0>         0.1317
     77 H35        -2.7768   -9.3467    5.0140 H         1 <0>         0.2076
     78 H36        -1.0615  -12.4828    1.1426 H         1 <0>         0.4156
     79 H37        -1.7100  -13.0616    2.5803 H         1 <0>         0.4150
     80 H38        -2.7081   -2.0721    0.3964 H         1 <0>         0.4187
@<TRIPOS>BOND
     1    1    2 1
     2    1   43 1
     3    1   44 1
     4    1   45 1
     5    2    7 1
     6    2    3 1
     7    3    4 1
     8    3   46 1
     9    3   47 1
    10    4    5 1
    11    4   48 1
    12    4   49 1
    13    5    6 1
    14    5    8 1
    15    5   80 1
    16    6    7 1
    17    6   50 1
    18    6   51 1
    19    7   52 1
    20    7   53 1
    21    8   13 1
    22    8    9 1
    23    8   54 1
    24    9   10 1
    25    9   55 1
    26    9   56 1
    27   10   11 1
    28   10   57 1
    29   10   58 1
    30   11   12 1
    31   11   14 1
    32   11   59 1
    33   12   13 1
    34   12   60 1
    35   12   61 1
    36   13   62 1
    37   13   63 1
    38   14   18 1
    39   14   15 1
    40   15   41 ar
    41   15   16 ar
    42   16   17 1
    43   16   38 ar
    44   17   18 2
    45   17   19 1
    46   19   24 ar
    47   19   20 ar
    48   20   21 ar
    49   20   64 1
    50   21   22 ar
    51   21   65 1
    52   22   23 ar
    53   22   27 1
    54   23   24 ar
    55   23   25 1
    56   24   66 1
    57   25   26 1
    58   26   67 1
    59   26   68 1
    60   26   69 1
    61   27   28 1
    62   27   70 1
    63   28   29 2
    64   28   30 2
    65   28   31 1
    66   31   32 1
    67   31   71 1
    68   32   37 ar
    69   32   33 ar
    70   33   34 ar
    71   33   72 1
    72   34   35 ar
    73   34   73 1
    74   35   36 ar
    75   35   74 1
    76   36   37 ar
    77   36   75 1
    78   37   76 1
    79   38   39 ar
    80   38   42 1
    81   39   40 ar
    82   40   41 ar
    83   40   77 1
    84   42   78 1
    85   42   79 1
@<TRIPOS>MOLECULE
CHEMBL297363
   77    82     0     0     0
SMALL
USER_CHARGES

@<TRIPOS>ATOM
      1 C1         -2.2471    1.7292   -0.1171 C.3       1 <0>        -0.0458
      2 N1         -2.1229    0.2685   -0.2109 N.4       1 <0>        -0.3885
      3 C2         -3.4239   -0.3523    0.0714 C.3       1 <0>        -0.0021
      4 C3         -3.2995   -1.8731   -0.0446 C.3       1 <0>         0.0200
      5 N2         -2.2905   -2.3535    0.9100 N.3       1 <0>        -0.5346
      6 C4         -0.9882   -1.7216    0.6553 C.3       1 <0>         0.0195
      7 C5         -1.1317   -0.2020    0.7655 C.3       1 <0>        -0.0022
      8 C6         -2.1821   -3.8179    0.8690 C.3       1 <0>         0.0859
      9 C7         -3.5330   -4.4396    1.2287 C.3       1 <0>        -0.1099
     10 C8         -3.4201   -5.9648    1.1860 C.3       1 <0>        -0.1276
     11 C9         -2.3626   -6.4262    2.1908 C.3       1 <0>         0.1741
     12 C10        -1.0117   -5.8046    1.8311 C.3       1 <0>        -0.1265
     13 C11        -1.1246   -4.2793    1.8738 C.3       1 <0>        -0.1113
     14 N3         -2.2545   -7.8867    2.1499 N.pl3     1 <0>        -0.3781
     15 C12        -2.4861   -8.7231    3.2010 C.ar      1 <0>         0.3781
     16 C13        -2.2719  -10.0340    2.7354 C.ar      1 <0>        -0.3251
     17 C14        -1.8950   -9.9165    1.3268 C.2       1 <0>         0.1792
     18 N4         -1.9035   -8.6397    1.0244 N.2       1 <0>        -0.2393
     19 C15        -1.5694  -11.0339    0.4091 C.ar      1 <0>        -0.0112
     20 C16        -2.3541  -12.1867    0.4070 C.ar      1 <0>        -0.1209
     21 C17        -2.0509  -13.2268   -0.4467 C.ar      1 <0>        -0.0998
     22 C18        -0.9645  -13.1287   -1.3059 C.ar      1 <0>         0.1438
     23 C19        -0.1768  -11.9782   -1.3077 C.ar      1 <0>         0.1007
     24 C20        -0.4816  -10.9313   -0.4571 C.ar      1 <0>        -0.1510
     25 O1          0.8870  -11.8835   -2.1492 O.3       1 <0>        -0.3166
     26 C21         1.6498  -10.6762   -2.0973 C.3       1 <0>         0.0281
     27 N5         -0.6597  -14.1858   -2.1708 N.am      1 <0>        -0.6570
     28 C22        -1.6020  -15.0998   -2.4762 C.2       1 <0>         0.5631
     29 O2         -2.7420  -14.9531   -2.0802 O.2       1 <0>        -0.5126
     30 C23        -1.2493  -16.2804   -3.2926 C.ar      1 <0>        -0.1431
     31 C24         0.0600  -16.4548   -3.7440 C.ar      1 <0>        -0.0848
     32 C25         0.3825  -17.5590   -4.5056 C.ar      1 <0>        -0.1260
     33 C26        -0.5887  -18.4921   -4.8225 C.ar      1 <0>        -0.0863
     34 C27        -1.8885  -18.3251   -4.3786 C.ar      1 <0>        -0.1260
     35 C28        -2.2228  -17.2289   -3.6107 C.ar      1 <0>        -0.0546
     36 C29        -2.4464  -11.1014    3.6311 C.ar      1 <0>         0.5209
     37 N6         -2.8067  -10.8243    4.8806 N.ar      1 <0>        -0.6027
     38 C30        -2.9971   -9.5780    5.2752 C.ar      1 <0>         0.3905
     39 N7         -2.8450   -8.5476    4.4725 N.ar      1 <0>        -0.5790
     40 N8         -2.2491  -12.4068    3.2241 N.pl3     1 <0>        -0.8249
     41 H1         -1.2821    2.1902   -0.3279 H         1 <0>         0.1240
     42 H2         -2.9826    2.0786   -0.8417 H         1 <0>         0.1240
     43 H3         -2.5686    2.0028    0.8878 H         1 <0>         0.1233
     44 H4         -3.7403   -0.0896    1.0809 H         1 <0>         0.1380
     45 H5         -4.1615    0.0077   -0.6458 H         1 <0>         0.1354
     46 H6         -4.2611   -2.3347    0.1795 H         1 <0>         0.1267
     47 H7         -2.9963   -2.1369   -1.0578 H         1 <0>         0.0605
     48 H8         -0.2636   -2.0727    1.3899 H         1 <0>         0.1271
     49 H9         -0.6469   -1.9829   -0.3464 H         1 <0>         0.0603
     50 H10        -0.1700    0.2693    0.5629 H         1 <0>         0.1352
     51 H11        -1.4598    0.0599    1.7714 H         1 <0>         0.1379
     52 H12        -1.8926   -4.1328   -0.1335 H         1 <0>         0.0566
     53 H13        -3.8225   -4.1246    2.2313 H         1 <0>         0.0823
     54 H14        -4.2864   -4.1108    0.5129 H         1 <0>         0.0718
     55 H15        -4.3826   -6.4077    1.4422 H         1 <0>         0.0768
     56 H16        -3.1306   -6.2797    0.1834 H         1 <0>         0.0784
     57 H17        -2.6521   -6.1113    3.1934 H         1 <0>         0.1123
     58 H18        -0.2583   -6.1333    2.5470 H         1 <0>         0.0762
     59 H19        -0.7222   -6.1195    0.8286 H         1 <0>         0.0779
     60 H20        -0.1622   -3.8364    1.6176 H         1 <0>         0.0719
     61 H21        -1.4141   -3.9644    2.8764 H         1 <0>         0.0825
     62 H22        -3.1996  -12.2653    1.0744 H         1 <0>         0.1386
     63 H23        -2.6592  -14.1192   -0.4466 H         1 <0>         0.1714
     64 H24         0.1249  -10.0377   -0.4603 H         1 <0>         0.1386
     65 H25         1.0075   -9.8298   -2.3407 H         1 <0>         0.0572
     66 H26         2.0571  -10.5466   -1.0946 H         1 <0>         0.0576
     67 H27         2.4666  -10.7312   -2.8169 H         1 <0>         0.1049
     68 H28         0.2298  -14.2608   -2.5504 H         1 <0>         0.4177
     69 H29         0.8188  -15.7268   -3.4979 H         1 <0>         0.1257
     70 H30         1.3951  -17.6951   -4.8555 H         1 <0>         0.1322
     71 H31        -0.3310  -19.3546   -5.4193 H         1 <0>         0.1312
     72 H32        -2.6419  -19.0568   -4.6301 H         1 <0>         0.1339
     73 H33        -3.2367  -17.1022   -3.2608 H         1 <0>         0.1387
     74 H34        -3.2896   -9.3980    6.2992 H         1 <0>         0.2061
     75 H35        -1.7979  -12.5903    2.3852 H         1 <0>         0.4153
     76 H36        -2.5616  -13.1398    3.7772 H         1 <0>         0.4129
     77 H37        -1.8248    0.0155   -1.1411 H         1 <0>         0.4222
@<TRIPOS>BOND
     1    1    2 1
     2    1   41 1
     3    1   42 1
     4    1   43 1
     5    2    7 1
     6    2    3 1
     7    2   77 1
     8    3    4 1
     9    3   44 1
    10    3   45 1
    11    4    5 1
    12    4   46 1
    13    4   47 1
    14    5    6 1
    15    5    8 1
    16    6    7 1
    17    6   48 1
    18    6   49 1
    19    7   50 1
    20    7   51 1
    21    8   13 1
    22    8    9 1
    23    8   52 1
    24    9   10 1
    25    9   53 1
    26    9   54 1
    27   10   11 1
    28   10   55 1
    29   10   56 1
    30   11   12 1
    31   11   14 1
    32   11   57 1
    33   12   13 1
    34   12   58 1
    35   12   59 1
    36   13   60 1
    37   13   61 1
    38   14   18 1
    39   14   15 1
    40   15   39 ar
    41   15   16 ar
    42   16   17 1
    43   16   36 ar
    44   17   18 2
    45   17   19 1
    46   19   24 ar
    47   19   20 ar
    48   20   21 ar
    49   20   62 1
    50   21   22 ar
    51   21   63 1
    52   22   23 ar
    53   22   27 1
    54   23   24 ar
    55   23   25 1
    56   24   64 1
    57   25   26 1
    58   26   65 1
    59   26   66 1
    60   26   67 1
    61   27   28 am
    62   27   68 1
    63   28   29 2
    64   28   30 1
    65   30   35 ar
    66   30   31 ar
    67   31   32 ar
    68   31   69 1
    69   32   33 ar
    70   32   70 1
    71   33   34 ar
    72   33   71 1
    73   34   35 ar
    74   34   72 1
    75   35   73 1
    76   36   37 ar
    77   36   40 1
    78   37   38 ar
    79   38   39 ar
    80   38   74 1
    81   40   75 1
    82   40   76 1
@<TRIPOS>MOLECULE
CHEMBL297363__1
   77    82     0     0     0
SMALL
USER_CHARGES

@<TRIPOS>ATOM
      1 C1         -2.2857    1.6699   -0.2550 C.3       1 <0>         0.0194
      2 N1         -2.1344    0.2107   -0.3311 N.3       1 <0>        -0.5435
      3 C2         -3.4259   -0.4636   -0.1379 C.3       1 <0>         0.0253
      4 C3         -3.2357   -1.9750   -0.2835 C.3       1 <0>        -0.0068
      5 N2         -2.2647   -2.4447    0.7134 N.4       1 <0>        -0.3838
      6 C4         -0.9732   -1.7808    0.4923 C.3       1 <0>        -0.0066
      7 C5         -1.1446   -0.2678    0.6444 C.3       1 <0>         0.0254
      8 C6         -2.0960   -3.8983    0.5852 C.3       1 <0>         0.0236
      9 C7         -3.4407   -4.5903    0.8173 C.3       1 <0>        -0.1364
     10 C8         -3.2649   -6.1043    0.6838 C.3       1 <0>        -0.1261
     11 C9         -2.2535   -6.5938    1.7221 C.3       1 <0>         0.1716
     12 C10        -0.9088   -5.9019    1.4900 C.3       1 <0>        -0.1253
     13 C11        -1.0845   -4.3879    1.6236 C.3       1 <0>        -0.1364
     14 N3         -2.0853   -8.0435    1.5943 N.pl3     1 <0>        -0.3837
     15 C12        -2.3474   -8.9559    2.5725 C.ar      1 <0>         0.3796
     16 C13        -2.0532  -10.2244    2.0380 C.ar      1 <0>        -0.3252
     17 C14        -1.5957   -9.9999    0.6668 C.2       1 <0>         0.1891
     18 N4         -1.6363   -8.7068    0.4473 N.2       1 <0>        -0.2436
     19 C15        -1.1705  -11.0412   -0.2983 C.ar      1 <0>        -0.0168
     20 C16        -1.9073  -12.2185   -0.4247 C.ar      1 <0>        -0.1200
     21 C17        -1.5113  -13.1878   -1.3224 C.ar      1 <0>        -0.1002
     22 C18        -0.3791  -12.9940   -2.1026 C.ar      1 <0>         0.1470
     23 C19         0.3610  -11.8187   -1.9801 C.ar      1 <0>         0.1009
     24 C20        -0.0366  -10.8424   -1.0850 C.ar      1 <0>        -0.1500
     25 O1          1.4698  -11.6302   -2.7443 O.3       1 <0>        -0.3159
     26 C21         2.1795  -10.4028   -2.5662 C.3       1 <0>         0.0282
     27 N5          0.0199  -13.9796   -3.0125 N.am      1 <0>        -0.6574
     28 C22        -0.8649  -14.9040   -3.4356 C.2       1 <0>         0.5638
     29 O2         -2.0320  -14.8247   -3.1045 O.2       1 <0>        -0.5124
     30 C23        -0.4164  -16.0143   -4.3021 C.ar      1 <0>        -0.1441
     31 C24         0.9241  -16.1115   -4.6795 C.ar      1 <0>        -0.0846
     32 C25         1.3361  -17.1502   -5.4885 C.ar      1 <0>        -0.1258
     33 C26         0.4240  -18.0941   -5.9261 C.ar      1 <0>        -0.0855
     34 C27        -0.9062  -18.0034   -5.5561 C.ar      1 <0>        -0.1259
     35 C28        -1.3302  -16.9734   -4.7421 C.ar      1 <0>        -0.0543
     36 C29        -2.2398  -11.3547    2.8502 C.ar      1 <0>         0.5224
     37 N6         -2.6866  -11.1746    4.0894 N.ar      1 <0>        -0.6006
     38 C30        -2.9502   -9.9650    4.5505 C.ar      1 <0>         0.3935
     39 N7         -2.7902   -8.8785    3.8272 N.ar      1 <0>        -0.5820
     40 N8         -1.9663  -12.6222    2.3734 N.pl3     1 <0>        -0.8229
     41 H1         -1.3282    2.1460   -0.4663 H         1 <0>         0.0843
     42 H2         -3.0237    1.9974   -0.9872 H         1 <0>         0.0839
     43 H3         -2.6174    1.9491    0.7451 H         1 <0>         0.0396
     44 H4         -3.8078   -0.2393    0.8580 H         1 <0>         0.0605
     45 H5         -4.1352   -0.1124   -0.8874 H         1 <0>         0.1239
     46 H6         -4.1899   -2.4780   -0.1265 H         1 <0>         0.1375
     47 H7         -2.8667   -2.2000   -1.2842 H         1 <0>         0.1382
     48 H8         -0.2500   -2.1399    1.2245 H         1 <0>         0.1372
     49 H9         -0.6158   -2.0068   -0.5123 H         1 <0>         0.1380
     50 H10        -0.1896    0.2262    0.4656 H         1 <0>         0.1237
     51 H11        -1.4890   -0.0403    1.6532 H         1 <0>         0.0605
     52 H12        -1.7333   -4.1352   -0.4150 H         1 <0>         0.1416
     53 H13        -3.8033   -4.3534    1.8176 H         1 <0>         0.0916
     54 H14        -4.1612   -4.2415    0.0776 H         1 <0>         0.0965
     55 H15        -4.2229   -6.5972    0.8491 H         1 <0>         0.0906
     56 H16        -2.9023   -6.3411   -0.3165 H         1 <0>         0.0898
     57 H17        -2.6161   -6.3570    2.7224 H         1 <0>         0.1146
     58 H18        -0.1882   -6.2507    2.2298 H         1 <0>         0.0901
     59 H19        -0.5462   -6.1388    0.4898 H         1 <0>         0.0892
     60 H20        -0.1265   -3.8950    1.4582 H         1 <0>         0.0962
     61 H21        -1.4472   -4.1511    2.6238 H         1 <0>         0.0917
     62 H22        -2.7882  -12.3715    0.1811 H         1 <0>         0.1384
     63 H23        -2.0826  -14.0993   -1.4185 H         1 <0>         0.1720
     64 H24         0.5330   -9.9295   -0.9920 H         1 <0>         0.1387
     65 H25         3.0403  -10.3805   -3.2344 H         1 <0>         0.1057
     66 H26         1.5202   -9.5654   -2.7951 H         1 <0>         0.0572
     67 H27         2.5191  -10.3260   -1.5333 H         1 <0>         0.0575
     68 H28         0.9332  -13.9974   -3.3387 H         1 <0>         0.4183
     69 H29         1.6369  -15.3750   -4.3392 H         1 <0>         0.1256
     70 H30         2.3729  -17.2266   -5.7812 H         1 <0>         0.1325
     71 H31         0.7517  -18.9051   -6.5595 H         1 <0>         0.1315
     72 H32        -1.6132  -18.7430   -5.9017 H         1 <0>         0.1342
     73 H33        -2.3678  -16.9065   -4.4500 H         1 <0>         0.1387
     74 H34        -3.3118   -9.8643    5.5632 H         1 <0>         0.2071
     75 H35        -1.4577  -12.7331    1.5549 H         1 <0>         0.4161
     76 H36        -2.2828  -13.4011    2.8571 H         1 <0>         0.4141
     77 H37        -2.6009   -2.2259    1.6393 H         1 <0>         0.4186
@<TRIPOS>BOND
     1    1    2 1
     2    1   41 1
     3    1   42 1
     4    1   43 1
     5    2    7 1
     6    2    3 1
     7    3    4 1
     8    3   44 1
     9    3   45 1
    10    4    5 1
    11    4   46 1
    12    4   47 1
    13    5    6 1
    14    5    8 1
    15    5   77 1
    16    6    7 1
    17    6   48 1
    18    6   49 1
    19    7   50 1
    20    7   51 1
    21    8   13 1
    22    8    9 1
    23    8   52 1
    24    9   10 1
    25    9   53 1
    26    9   54 1
    27   10   11 1
    28   10   55 1
    29   10   56 1
    30   11   12 1
    31   11   14 1
    32   11   57 1
    33   12   13 1
    34   12   58 1
    35   12   59 1
    36   13   60 1
    37   13   61 1
    38   14   18 1
    39   14   15 1
    40   15   39 ar
    41   15   16 ar
    42   16   17 1
    43   16   36 ar
    44   17   18 2
    45   17   19 1
    46   19   24 ar
    47   19   20 ar
    48   20   21 ar
    49   20   62 1
    50   21   22 ar
    51   21   63 1
    52   22   23 ar
    53   22   27 1
    54   23   24 ar
    55   23   25 1
    56   24   64 1
    57   25   26 1
    58   26   65 1
    59   26   66 1
    60   26   67 1
    61   27   28 am
    62   27   68 1
    63   28   29 2
    64   28   30 1
    65   30   35 ar
    66   30   31 ar
    67   31   32 ar
    68   31   69 1
    69   32   33 ar
    70   32   70 1
    71   33   34 ar
    72   33   71 1
    73   34   35 ar
    74   34   72 1
    75   35   73 1
    76   36   37 ar
    77   36   40 1
    78   37   38 ar
    79   38   39 ar
    80   38   74 1
    81   40   75 1
    82   40   76 1
@<TRIPOS>MOLECULE
CHEMBL272198
   54    58     0     0     0
SMALL
USER_CHARGES

@<TRIPOS>ATOM
      1 C1         -0.6761    0.0852    1.8934 C.3       1 <0>         0.0148
      2 O1         -0.2795   -0.5751    0.6898 O.3       1 <0>        -0.2865
      3 C2         -1.1442   -0.5201   -0.3582 C.ar      1 <0>         0.1343
      4 C3         -2.3250    0.1516   -0.2254 C.ar      1 <0>        -0.1360
      5 C4         -3.2168    0.2088   -1.3069 C.ar      1 <0>        -0.0902
      6 C5         -4.4478    0.8952   -1.2066 C.ar      1 <0>         0.2833
      7 C6         -5.2754    0.9085   -2.3154 C.ar      1 <0>        -0.2639
      8 C7         -4.8805    0.2579   -3.4776 C.ar      1 <0>         0.2260
      9 N1         -3.7350   -0.3771   -3.5600 N.ar      1 <0>        -0.4819
     10 C8         -2.8859   -0.4301   -2.5268 C.ar      1 <0>         0.1817
     11 C9         -1.6634   -1.1138   -2.6324 C.ar      1 <0>        -0.2357
     12 C10        -0.8113   -1.1489   -1.5664 C.ar      1 <0>         0.2160
     13 O2          0.3727   -1.8067   -1.6760 O.3       1 <0>        -0.2777
     14 C11         0.6562   -2.4277   -2.9314 C.3       1 <0>         0.0118
     15 O3         -4.8072    1.5212   -0.0587 O.3       1 <0>        -0.2125
     16 C12        -5.9574    2.2445   -0.0599 C.ar      1 <0>         0.0435
     17 C13        -7.1885    1.5838   -0.0096 C.ar      1 <0>        -0.1372
     18 C14        -8.3569    2.2825   -0.0095 C.ar      1 <0>        -0.0823
     19 C15        -8.3303    3.6833   -0.0598 C.ar      1 <0>        -0.0028
     20 C16        -7.0855    4.3571   -0.1104 C.ar      1 <0>        -0.0530
     21 C17        -5.8965    3.6087   -0.1045 C.ar      1 <0>        -0.0793
     22 C18        -7.0592    5.7619   -0.1600 C.ar      1 <0>        -0.0686
     23 C19        -8.2247    6.4682   -0.1593 C.ar      1 <0>        -0.1154
     24 C20        -9.4550    5.8253   -0.1097 C.ar      1 <0>        -0.0546
     25 C21        -9.5282    4.4409   -0.0607 C.ar      1 <0>        -0.1251
     26 C22       -10.8379    3.7649   -0.0091 C.2       1 <0>         0.5673
     27 O4        -10.8946    2.5603    0.1467 O.2       1 <0>        -0.5290
     28 N2        -11.9719    4.4823   -0.1347 N.am      1 <0>        -0.6920
     29 C23       -13.2729    3.8108   -0.0834 C.3       1 <0>         0.0717
     30 C24       -14.3251    4.2295   -1.1123 C.3       1 <0>        -0.1890
     31 C25       -14.4806    4.6427    0.3526 C.3       1 <0>        -0.1850
     32 H1          0.1018   -0.0355    2.6474 H         1 <0>         0.1187
     33 H2         -0.8265    1.1461    1.6932 H         1 <0>         0.0667
     34 H3         -1.6061   -0.3512    2.2578 H         1 <0>         0.0673
     35 H4         -2.5717    0.6364    0.7077 H         1 <0>         0.1725
     36 H5         -6.2246    1.4224   -2.2774 H         1 <0>         0.1853
     37 H6         -5.5345    0.2748   -4.3369 H         1 <0>         0.2123
     38 H7         -1.3963   -1.6064   -3.5557 H         1 <0>         0.1712
     39 H8         -0.1121   -3.1688   -3.1518 H         1 <0>         0.0693
     40 H9          0.6675   -1.6716   -3.7164 H         1 <0>         0.0692
     41 H10         1.6293   -2.9163   -2.8835 H         1 <0>         0.1214
     42 H11        -7.2129    0.5048    0.0293 H         1 <0>         0.1380
     43 H12        -9.3011    1.7595    0.0290 H         1 <0>         0.1843
     44 H13        -4.9398    4.1087   -0.1390 H         1 <0>         0.1459
     45 H14        -6.1136    6.2822   -0.1984 H         1 <0>         0.1409
     46 H15        -8.1911    7.5470   -0.1977 H         1 <0>         0.1420
     47 H16       -10.3637    6.4090   -0.1100 H         1 <0>         0.1356
     48 H17       -11.9267    5.4432   -0.2589 H         1 <0>         0.4030
     49 H18       -13.2496    2.7627    0.2150 H         1 <0>         0.1423
     50 H19       -14.0493    5.0046   -1.8273 H         1 <0>         0.0987
     51 H20       -14.9941    3.4568   -1.4910 H         1 <0>         0.1068
     52 H21       -15.2520    4.1418    0.9376 H         1 <0>         0.1087
     53 H22       -14.3072    5.6897    0.6014 H         1 <0>         0.0997
     54 H23        -3.4977   -0.8188   -4.3903 H         1 <0>         0.4473
@<TRIPOS>BOND
     1    1    2 1
     2    1   32 1
     3    1   33 1
     4    1   34 1
     5    2    3 1
     6    3   12 ar
     7    3    4 ar
     8    4    5 ar
     9    4   35 1
    10    5   10 ar
    11    5    6 ar
    12    6    7 ar
    13    6   15 1
    14    7    8 ar
    15    7   36 1
    16    8    9 ar
    17    8   37 1
    18    9   10 ar
    19    9   54 1
    20   10   11 ar
    21   11   12 ar
    22   11   38 1
    23   12   13 1
    24   13   14 1
    25   14   39 1
    26   14   40 1
    27   14   41 1
    28   15   16 1
    29   16   21 ar
    30   16   17 ar
    31   17   18 ar
    32   17   42 1
    33   18   19 ar
    34   18   43 1
    35   19   25 ar
    36   19   20 ar
    37   20   21 ar
    38   20   22 ar
    39   21   44 1
    40   22   23 ar
    41   22   45 1
    42   23   24 ar
    43   23   46 1
    44   24   25 ar
    45   24   47 1
    46   25   26 1
    47   26   27 2
    48   26   28 am
    49   28   29 1
    50   28   48 1
    51   29   31 1
    52   29   30 1
    53   29   49 1
    54   30   31 1
    55   30   50 1
    56   30   51 1
    57   31   52 1
    58   31   53 1
@<TRIPOS>MOLECULE
CHEMBL271759
   34    37     0     0     0
SMALL
USER_CHARGES

@<TRIPOS>ATOM
      1 C1         -0.0140    1.3706    0.0554 C.ar      1 <0>        -0.1164
      2 C2          1.1727    2.0900    0.0540 C.ar      1 <0>        -0.0712
      3 C3          2.3868    1.4353    0.0343 C.ar      1 <0>        -0.1283
      4 C4          2.4286    0.0478    0.0160 C.ar      1 <0>         0.1109
      5 C5          1.2294   -0.6885    0.0178 C.ar      1 <0>         0.0761
      6 C6          0.0041   -0.0040    0.0376 C.ar      1 <0>        -0.0511
      7 N1          1.2415   -2.0359   -0.0006 N.2       1 <0>        -0.4340
      8 C7          2.3678   -2.7141   -0.0204 C.2       1 <0>         0.2060
      9 C8          3.6449   -2.0022   -0.0226 C.2       1 <0>        -0.0612
     10 N2          3.6453   -0.6179   -0.0044 N.pl3     1 <0>        -0.3815
     11 C9          4.9306   -0.2251   -0.0122 C.2       1 <0>         0.2020
     12 N3          5.7063   -1.2807   -0.0340 N.2       1 <0>        -0.4642
     13 C10         4.9624   -2.3894   -0.0398 C.2       1 <0>         0.0704
     14 C11         2.3429   -4.1952   -0.0398 C.2       1 <0>         0.5848
     15 O1          3.3850   -4.8203   -0.0580 O.2       1 <0>        -0.4900
     16 N4          1.1646   -4.8495   -0.0372 N.am      1 <0>        -0.6492
     17 C12         1.1384   -6.2430   -0.1505 C.ar      1 <0>         0.1695
     18 C13         2.1445   -7.0074    0.4262 C.ar      1 <0>        -0.1146
     19 C14         2.1157   -8.3834    0.3125 C.ar      1 <0>        -0.0835
     20 C15         1.0866   -9.0010   -0.3748 C.ar      1 <0>        -0.1248
     21 C16         0.0834   -8.2437   -0.9508 C.ar      1 <0>        -0.0721
     22 C17         0.1026   -6.8666   -0.8356 C.ar      1 <0>        -0.1177
     23 Br1        -1.2746   -5.8320   -1.6158 Br        1 <0>        -0.0415
     24 H1         -0.9584    1.8942    0.0751 H         1 <0>         0.1439
     25 H2          1.1455    3.1696    0.0682 H         1 <0>         0.1436
     26 H3          3.3057    2.0027    0.0326 H         1 <0>         0.1403
     27 H4         -0.9238   -0.5567    0.0384 H         1 <0>         0.1498
     28 H5          5.2706    0.7999   -0.0021 H         1 <0>         0.2189
     29 H6          5.3296   -3.4049   -0.0568 H         1 <0>         0.1990
     30 H7          0.3348   -4.3537    0.0432 H         1 <0>         0.4248
     31 H8          2.9487   -6.5261    0.9629 H         1 <0>         0.1506
     32 H9          2.8981   -8.9780    0.7606 H         1 <0>         0.1362
     33 H10         1.0668  -10.0773   -0.4621 H         1 <0>         0.1355
     34 H11        -0.7185   -8.7291   -1.4872 H         1 <0>         0.1386
@<TRIPOS>BOND
     1    1    6 ar
     2    1    2 ar
     3    1   24 1
     4    2    3 ar
     5    2   25 1
     6    3    4 ar
     7    3   26 1
     8    4   10 1
     9    4    5 ar
    10    5    6 ar
    11    5    7 1
    12    6   27 1
    13    7    8 2
    14    8    9 1
    15    8   14 1
    16    9   13 2
    17    9   10 1
    18   10   11 1
    19   11   12 2
    20   11   28 1
    21   12   13 1
    22   13   29 1
    23   14   15 2
    24   14   16 am
    25   16   17 1
    26   16   30 1
    27   17   22 ar
    28   17   18 ar
    29   18   19 ar
    30   18   31 1
    31   19   20 ar
    32   19   32 1
    33   20   21 ar
    34   20   33 1
    35   21   22 ar
    36   21   34 1
    37   22   23 1
@<TRIPOS>MOLECULE
CHEMBL187198
   43    45     0     0     0
SMALL
USER_CHARGES

@<TRIPOS>ATOM
      1 C1         -2.3214    0.0982    0.8110 C.3       1 <0>        -0.1143
      2 C2         -1.1011   -0.6771    0.3857 C.ar      1 <0>        -0.0628
      3 C3         -1.0979   -1.3558   -0.8177 C.ar      1 <0>        -0.1116
      4 C4          0.0209   -2.0675   -1.2092 C.ar      1 <0>        -0.0952
      5 C5          1.1409   -2.1024   -0.3984 C.ar      1 <0>        -0.1132
      6 C6          1.1446   -1.4259    0.8064 C.ar      1 <0>        -0.0210
      7 C7          0.0229   -0.7052    1.2000 C.ar      1 <0>         0.1413
      8 N1          0.0246   -0.0146    2.4167 N.am      1 <0>        -0.6820
      9 C8         -0.3554   -0.6412    3.5478 C.2       1 <0>         0.6266
     10 O1         -0.6126   -1.8312    3.5276 O.2       1 <0>        -0.5131
     11 C9         -0.4588    0.1079    4.7990 C.2       1 <0>        -0.3322
     12 C10        -0.8201   -0.3284    6.0660 C.2       1 <0>         0.1883
     13 N2         -0.8255    0.5758    7.0129 N.2       1 <0>        -0.5918
     14 C11        -0.5030    1.8337    6.7676 C.2       1 <0>         0.3415
     15 S1         -0.1477    1.8363    5.1226 S.3       1 <0>         0.1110
     16 N3         -0.4622    2.8914    7.6505 N.pl3     1 <0>        -0.6632
     17 C12        -0.8044    2.6829    9.0596 C.3       1 <0>         0.1549
     18 C13         0.4312    2.1931    9.8174 C.3       1 <0>        -0.1298
     19 C14         0.0738    1.9753   11.2891 C.3       1 <0>        -0.1169
     20 C15        -0.4081    3.2939   11.8974 C.3       1 <0>        -0.1238
     21 C16        -1.6437    3.7838   11.1396 C.3       1 <0>        -0.1152
     22 C17        -1.2863    4.0015    9.6679 C.3       1 <0>        -0.1279
     23 Cl1         2.5502   -1.4709    1.8243 Cl        1 <0>        -0.0574
     24 H1         -2.2506    1.1201    0.4386 H         1 <0>         0.0763
     25 H2         -3.2138   -0.3763    0.4028 H         1 <0>         0.0738
     26 H3         -2.3824    0.1114    1.8992 H         1 <0>         0.0675
     27 H4         -1.9707   -1.3308   -1.4533 H         1 <0>         0.1346
     28 H5          0.0202   -2.5976   -2.1501 H         1 <0>         0.1367
     29 H6          2.0133   -2.6592   -0.7072 H         1 <0>         0.1380
     30 H7          0.2993    0.9152    2.4462 H         1 <0>         0.4073
     31 H8         -1.0830   -1.3577    6.2603 H         1 <0>         0.1846
     32 H9         -0.2069    3.7738    7.3388 H         1 <0>         0.4196
     33 H10        -1.5960    1.9374    9.1348 H         1 <0>         0.0947
     34 H11         0.7744    1.2537    9.3841 H         1 <0>         0.0694
     35 H12         1.2228    2.9386    9.7423 H         1 <0>         0.0643
     36 H13        -0.7178    1.2298   11.3643 H         1 <0>         0.0662
     37 H14         0.9540    1.6263   11.8290 H         1 <0>         0.0670
     38 H15        -0.6627    3.1388   12.9458 H         1 <0>         0.0663
     39 H16         0.3835    4.0395   11.8222 H         1 <0>         0.0633
     40 H17        -2.4352    3.0382   11.2148 H         1 <0>         0.0670
     41 H18        -1.9869    4.7232   11.5730 H         1 <0>         0.0701
     42 H19        -0.4947    4.7471    9.5928 H         1 <0>         0.0702
     43 H20        -2.1665    4.3505    9.1281 H         1 <0>         0.0711
@<TRIPOS>BOND
     1    1    2 1
     2    1   24 1
     3    1   25 1
     4    1   26 1
     5    2    7 ar
     6    2    3 ar
     7    3    4 ar
     8    3   27 1
     9    4    5 ar
    10    4   28 1
    11    5    6 ar
    12    5   29 1
    13    6    7 ar
    14    6   23 1
    15    7    8 1
    16    8    9 am
    17    8   30 1
    18    9   10 2
    19    9   11 1
    20   11   15 1
    21   11   12 2
    22   12   13 1
    23   12   31 1
    24   13   14 2
    25   14   15 1
    26   14   16 1
    27   16   17 1
    28   16   32 1
    29   17   22 1
    30   17   18 1
    31   17   33 1
    32   18   19 1
    33   18   34 1
    34   18   35 1
    35   19   20 1
    36   19   36 1
    37   19   37 1
    38   20   21 1
    39   20   38 1
    40   20   39 1
    41   21   22 1
    42   21   40 1
    43   21   41 1
    44   22   42 1
    45   22   43 1
@<TRIPOS>MOLECULE
CHEMBL360810
   37    39     0     0     0
SMALL
USER_CHARGES

@<TRIPOS>ATOM
      1 C1         -1.2772    1.1658    0.2146 C.3       1 <0>        -0.1169
      2 C2         -0.5827   -0.1669    0.1026 C.ar      1 <0>        -0.0817
      3 C3         -0.5801   -0.8463   -1.1003 C.ar      1 <0>        -0.1035
      4 C4          0.0566   -2.0691   -1.2046 C.ar      1 <0>        -0.0996
      5 C5          0.6932   -2.6168   -0.1056 C.ar      1 <0>        -0.1047
      6 C6          0.6941   -1.9430    1.1007 C.ar      1 <0>        -0.0222
      7 C7          0.0600   -0.7105    1.2067 C.ar      1 <0>         0.1356
      8 N1          0.0640   -0.0223    2.4247 N.am      1 <0>        -0.6666
      9 C8         -0.3338   -0.6450    3.5518 C.2       1 <0>         0.6022
     10 O1         -0.6001   -1.8329    3.5295 O.2       1 <0>        -0.4742
     11 C9         -0.4456    0.1060    4.8015 C.2       1 <0>        -0.2687
     12 C10        -0.8248   -0.3264    6.0648 C.2       1 <0>         0.1550
     13 N2         -0.8338    0.5785    7.0107 N.2       1 <0>        -0.5560
     14 C11        -0.4988    1.8335    6.7683 C.2       1 <0>         0.2449
     15 S1         -0.1246    1.8321    5.1275 S.3       1 <0>         0.2255
     16 N3         -0.4594    2.8927    7.6522 N.pl3     1 <0>        -0.5872
     17 C12        -0.6822    2.6754    9.0103 C.ar      1 <0>         0.2958
     18 C13        -0.4340    1.4296    9.5857 C.ar      1 <0>        -0.1555
     19 C14        -0.6676    1.2555   10.9338 C.ar      1 <0>         0.1580
     20 N4         -1.1197    2.2489   11.6760 N.ar      1 <0>        -0.4719
     21 C15        -1.3667    3.4422   11.1689 C.ar      1 <0>         0.1626
     22 C16        -1.1538    3.6998    9.8308 C.ar      1 <0>        -0.1757
     23 Cl1         1.4928   -2.6311    2.4800 Cl        1 <0>        -0.0457
     24 H1         -0.5752    1.9630   -0.0301 H         1 <0>         0.0772
     25 H2         -2.1180    1.1967   -0.4782 H         1 <0>         0.0784
     26 H3         -1.6405    1.3017    1.2333 H         1 <0>         0.0642
     27 H4         -1.0764   -0.4218   -1.9605 H         1 <0>         0.1371
     28 H5          0.0566   -2.5979   -2.1462 H         1 <0>         0.1389
     29 H6          1.1896   -3.5722   -0.1904 H         1 <0>         0.1401
     30 H7          0.3532    0.9030    2.4580 H         1 <0>         0.4083
     31 H8         -1.0980   -1.3535    6.2568 H         1 <0>         0.2010
     32 H9         -0.2765    3.7884    7.3279 H         1 <0>         0.4483
     33 H10        -0.0644    0.6124    8.9841 H         1 <0>         0.1956
     34 H11        -0.4786    0.2940   11.3878 H         1 <0>         0.2113
     35 H12        -1.7363    4.2281   11.8109 H         1 <0>         0.2125
     36 H13        -1.3532    4.6798    9.4233 H         1 <0>         0.1860
     37 H14        -1.2751    2.0976   12.6214 H         1 <0>         0.4518
@<TRIPOS>BOND
     1    1    2 1
     2    1   24 1
     3    1   25 1
     4    1   26 1
     5    2    7 ar
     6    2    3 ar
     7    3    4 ar
     8    3   27 1
     9    4    5 ar
    10    4   28 1
    11    5    6 ar
    12    5   29 1
    13    6    7 ar
    14    6   23 1
    15    7    8 1
    16    8    9 am
    17    8   30 1
    18    9   10 2
    19    9   11 1
    20   11   15 1
    21   11   12 2
    22   12   13 1
    23   12   31 1
    24   13   14 2
    25   14   15 1
    26   14   16 1
    27   16   17 1
    28   16   32 1
    29   17   22 ar
    30   17   18 ar
    31   18   19 ar
    32   18   33 1
    33   19   20 ar
    34   19   34 1
    35   20   21 ar
    36   20   37 1
    37   21   22 ar
    38   21   35 1
    39   22   36 1
@<TRIPOS>MOLECULE
CHEMBL214495
   66    70     0     0     0
SMALL
USER_CHARGES

@<TRIPOS>ATOM
      1 C1          0.0322    1.5035    0.0085 C.3       1 <0>        -0.1266
      2 C2          0.0403   -0.0034    0.0006 C.ar      1 <0>        -0.0388
      3 C3          0.0402   -0.6862   -1.2004 C.ar      1 <0>        -0.1230
      4 C4          0.0476   -2.0662   -1.2164 C.ar      1 <0>        -0.0779
      5 C5          0.0554   -2.7806   -0.0162 C.ar      1 <0>        -0.1423
      6 C6          0.0561   -2.0963    1.1979 C.ar      1 <0>        -0.0380
      7 C7          0.0539   -0.7050    1.2056 C.ar      1 <0>        -0.0514
      8 C8          0.0602    0.0309    2.4938 C.ar      1 <0>        -0.0768
      9 C9          0.9864    1.0655    2.7000 C.ar      1 <0>        -0.0509
     10 C10         1.0140    1.7564    3.8704 C.ar      1 <0>        -0.1205
     11 C11         0.1069    1.4373    4.8932 C.ar      1 <0>         0.2179
     12 C12        -0.8335    0.3929    4.6947 C.ar      1 <0>        -0.2150
     13 C13        -0.8504   -0.3044    3.4800 C.ar      1 <0>        -0.0354
     14 C14        -1.7319    0.0941    5.7368 C.ar      1 <0>         0.2446
     15 N1         -1.6601    0.7960    6.8483 N.ar      1 <0>        -0.5585
     16 C15        -0.7646    1.7697    7.0005 C.ar      1 <0>         0.5694
     17 N2          0.1012    2.0938    6.0598 N.ar      1 <0>        -0.5744
     18 N3         -0.7415    2.4695    8.1932 N.pl3     1 <0>        -0.7003
     19 C16        -1.6902    2.1338    9.2580 C.3       1 <0>         0.1036
     20 C17         0.0624   -4.2589   -0.0337 C.2       1 <0>         0.5604
     21 O1          0.0692   -4.8791    1.0118 O.2       1 <0>        -0.5112
     22 N4          0.0613   -4.9189   -1.2088 N.am      1 <0>        -0.6571
     23 C18         0.1850   -6.3141   -1.2286 C.ar      1 <0>         0.1426
     24 C19         0.8039   -6.9724   -0.1765 C.ar      1 <0>        -0.0796
     25 C20         0.9253   -8.3492   -0.1983 C.ar      1 <0>        -0.1657
     26 C21         0.4308   -9.0743   -1.2670 C.ar      1 <0>        -0.0819
     27 C22        -0.1880   -8.4266   -2.3197 C.ar      1 <0>        -0.1050
     28 C23        -0.3190   -7.0458   -2.3038 C.ar      1 <0>         0.1745
     29 N5         -0.9500   -6.3886   -3.3654 N.pl3     1 <0>        -0.6790
     30 C24        -0.1777   -5.9349   -4.5301 C.3       1 <0>         0.1401
     31 C25        -0.8248   -6.4965   -5.8000 C.3       1 <0>        -0.1362
     32 C26        -2.3027   -6.1003   -5.8327 C.3       1 <0>        -0.1165
     33 C27        -3.0198   -6.6982   -4.6201 C.3       1 <0>        -0.1371
     34 C28        -2.3986   -6.1443   -3.3396 C.3       1 <0>         0.1449
     35 C29         1.5992   -9.0621    0.9456 C.3       1 <0>         0.5101
     36 F1          0.6459   -9.3949    1.9140 F         1 <0>        -0.1745
     37 F2          2.2106  -10.2283    0.4730 F         1 <0>        -0.1766
     38 F3          2.5665   -8.2250    1.5119 F         1 <0>        -0.1753
     39 H1          1.0578    1.8725    0.0021 H         1 <0>         0.0793
     40 H2         -0.4908    1.8687   -0.8755 H         1 <0>         0.0723
     41 H3         -0.4764    1.8595    0.9044 H         1 <0>         0.0757
     42 H4          0.0338   -0.1377   -2.1308 H         1 <0>         0.1340
     43 H5          0.0471   -2.5946   -2.1584 H         1 <0>         0.1245
     44 H6          0.0620   -2.6437    2.1289 H         1 <0>         0.1407
     45 H7          1.6874    1.3160    1.9175 H         1 <0>         0.1341
     46 H8          1.7330    2.5495    4.0134 H         1 <0>         0.1397
     47 H9         -1.5641   -1.0982    3.3165 H         1 <0>         0.1364
     48 H10        -2.4635   -0.6927    5.6267 H         1 <0>         0.1788
     49 H11        -0.0972    3.1826    8.3248 H         1 <0>         0.4166
     50 H12        -1.5214    2.7869   10.1142 H         1 <0>         0.0775
     51 H13        -2.7084    2.2687    8.8932 H         1 <0>         0.0604
     52 H14        -1.5465    1.0960    9.5587 H         1 <0>         0.0606
     53 H15        -0.0251   -4.4278   -2.0409 H         1 <0>         0.4141
     54 H16         1.1914   -6.4093    0.6597 H         1 <0>         0.1599
     55 H17         0.5285  -10.1498   -1.2792 H         1 <0>         0.1382
     56 H18        -0.5731   -8.9961   -3.1527 H         1 <0>         0.1385
     57 H19        -0.1814   -4.8456   -4.5691 H         1 <0>         0.0514
     58 H20         0.8476   -6.2964   -4.4519 H         1 <0>         0.0711
     59 H21        -0.3197   -6.0899   -6.6761 H         1 <0>         0.0693
     60 H22        -0.7394   -7.5832   -5.8018 H         1 <0>         0.0655
     61 H23        -2.3881   -5.0140   -5.8058 H         1 <0>         0.0614
     62 H24        -2.7597   -6.4778   -6.7474 H         1 <0>         0.0617
     63 H25        -4.0770   -6.4352   -4.6565 H         1 <0>         0.0694
     64 H26        -2.9137   -7.7830   -4.6331 H         1 <0>         0.0648
     65 H27        -2.8381   -6.6439   -2.4763 H         1 <0>         0.0696
     66 H28        -2.5874   -5.0725   -3.2795 H         1 <0>         0.0513
@<TRIPOS>BOND
     1    1    2 1
     2    1   39 1
     3    1   40 1
     4    1   41 1
     5    2    7 ar
     6    2    3 ar
     7    3    4 ar
     8    3   42 1
     9    4    5 ar
    10    4   43 1
    11    5    6 ar
    12    5   20 1
    13    6    7 ar
    14    6   44 1
    15    7    8 1
    16    8   13 ar
    17    8    9 ar
    18    9   10 ar
    19    9   45 1
    20   10   11 ar
    21   10   46 1
    22   11   17 ar
    23   11   12 ar
    24   12   13 ar
    25   12   14 ar
    26   13   47 1
    27   14   15 ar
    28   14   48 1
    29   15   16 ar
    30   16   17 ar
    31   16   18 1
    32   18   19 1
    33   18   49 1
    34   19   50 1
    35   19   51 1
    36   19   52 1
    37   20   21 2
    38   20   22 am
    39   22   23 1
    40   22   53 1
    41   23   28 ar
    42   23   24 ar
    43   24   25 ar
    44   24   54 1
    45   25   26 ar
    46   25   35 1
    47   26   27 ar
    48   26   55 1
    49   27   28 ar
    50   27   56 1
    51   28   29 1
    52   29   34 1
    53   29   30 1
    54   30   31 1
    55   30   57 1
    56   30   58 1
    57   31   32 1
    58   31   59 1
    59   31   60 1
    60   32   33 1
    61   32   61 1
    62   32   62 1
    63   33   34 1
    64   33   63 1
    65   33   64 1
    66   34   65 1
    67   34   66 1
    68   35   36 1
    69   35   37 1
    70   35   38 1
@<TRIPOS>MOLECULE
CHEMBL1084411
   65    69     0     0     0
SMALL
USER_CHARGES

@<TRIPOS>ATOM
      1 C1          0.1811    1.6470    0.1127 C.3       1 <0>        -0.0999
      2 C2         -1.0198    0.7802    0.3912 C.ar      1 <0>        -0.1063
      3 C3         -2.0998    0.7707   -0.4939 C.ar      1 <0>        -0.0642
      4 C4         -2.3880    1.4620   -1.7530 C.2       1 <0>        -0.2167
      5 C5         -3.6005    1.0521   -2.1578 C.2       1 <0>         0.0633
      6 N1         -4.1130    0.1549   -1.2613 N.pl3     1 <0>        -0.5960
      7 H1         -4.9767   -0.2797   -1.3394 H         1 <0>         0.4164
      8 C6         -3.2184   -0.0397   -0.2299 C.ar      1 <0>         0.0628
      9 C7         -3.2392   -0.8285    0.9160 C.ar      1 <0>        -0.0880
     10 C8         -2.1702   -0.8123    1.7827 C.ar      1 <0>        -0.1463
     11 C9         -1.0566   -0.0148    1.5215 C.ar      1 <0>         0.1802
     12 N2          0.0251   -0.0146    2.4100 N.pl3     1 <0>        -0.7072
     13 C10        -0.0585   -0.7117    3.6011 C.ar      1 <0>         0.2604
     14 C11        -0.4784   -0.0762    4.7870 C.ar      1 <0>        -0.1224
     15 C12        -0.5463   -0.8223    5.9633 C.ar      1 <0>         0.1451
     16 N3         -0.2251   -2.1013    5.9755 N.ar      1 <0>        -0.4729
     17 C13         0.1726   -2.7381    4.8928 C.ar      1 <0>         0.1657
     18 C14         0.2675   -2.0796    3.6657 C.ar      1 <0>        -0.0816
     19 C15         0.6945   -2.7825    2.4934 C.1       1 <0>         0.2503
     20 N4          1.0332   -3.3400    1.5634 N.1       1 <0>        -0.3867
     21 C16        -0.8388    1.3511    4.7841 C.2       1 <0>        -0.0426
     22 C17        -1.2377    1.9458    5.9215 C.2       1 <0>        -0.1236
     23 C18        -1.5981    3.3735    5.9186 C.ar      1 <0>         0.1684
     24 C19        -2.0070    3.9885    7.1054 C.ar      1 <0>        -0.1513
     25 C20        -2.3419    5.3298    7.0854 C.ar      1 <0>        -0.0681
     26 C21        -2.2586    6.0168    5.8813 C.ar      1 <0>        -0.1767
     27 C22        -1.8466    5.3474    4.7438 C.ar      1 <0>         0.1284
     28 N5         -1.5272    4.0701    4.7880 N.ar      1 <0>        -0.4570
     29 C23        -1.7555    6.0910    3.4362 C.3       1 <0>         0.1091
     30 N6         -0.3788    6.5630    3.2362 N.3       1 <0>        -0.5291
     31 C24        -0.0198    7.5788    4.2358 C.3       1 <0>         0.0194
     32 C25         1.4370    7.9997    4.0303 C.3       1 <0>        -0.0013
     33 N7          1.6040    8.5411    2.6751 N.4       1 <0>        -0.3882
     34 C26         1.2653    7.5075    1.6879 C.3       1 <0>        -0.0021
     35 C27        -0.1929    7.0825    1.8739 C.3       1 <0>         0.0268
     36 C28         2.9985    8.9617    2.4845 C.3       1 <0>        -0.0459
     37 H2          0.9035    1.0870   -0.4812 H         1 <0>         0.0653
     38 H3         -0.1312    2.5346   -0.4374 H         1 <0>         0.0663
     39 H4          0.6397    1.9462    1.0552 H         1 <0>         0.0565
     40 H5         -1.7466    2.1681   -2.2594 H         1 <0>         0.1430
     41 H6         -4.0979    1.3821   -3.0578 H         1 <0>         0.1700
     42 H7         -4.0947   -1.4536    1.1256 H         1 <0>         0.1226
     43 H8         -2.1923   -1.4262    2.6710 H         1 <0>         0.1209
     44 H9          0.8333    0.4746    2.1900 H         1 <0>         0.4142
     45 H10        -0.8664   -0.3455    6.8780 H         1 <0>         0.1701
     46 H11         0.4246   -3.7864    4.9547 H         1 <0>         0.1737
     47 H12        -0.7825    1.9204    3.8681 H         1 <0>         0.1421
     48 H13        -1.2940    1.3765    6.8375 H         1 <0>         0.1353
     49 H14        -2.0608    3.4241    8.0246 H         1 <0>         0.1423
     50 H15        -2.6616    5.8322    7.9864 H         1 <0>         0.1402
     51 H16        -2.5139    7.0651    5.8337 H         1 <0>         0.1306
     52 H17        -2.0336    5.4250    2.6194 H         1 <0>         0.1072
     53 H18        -2.4330    6.9447    3.4558 H         1 <0>         0.0636
     54 H19        -0.6688    8.4470    4.1213 H         1 <0>         0.0623
     55 H20        -0.1406    7.1633    5.2362 H         1 <0>         0.1219
     56 H21         1.7012    8.7635    4.7617 H         1 <0>         0.1354
     57 H22         2.0869    7.1340    4.1583 H         1 <0>         0.1369
     58 H23         1.4022    7.9064    0.6828 H         1 <0>         0.1369
     59 H24         1.9160    6.6443    1.8279 H         1 <0>         0.1380
     60 H25        -0.4401    6.3049    1.1512 H         1 <0>         0.1267
     61 H26        -0.8448    7.9425    1.7206 H         1 <0>         0.0619
     62 H27         3.6580    8.1041    2.6171 H         1 <0>         0.1229
     63 H28         3.1226    9.3635    1.4789 H         1 <0>         0.1247
     64 H29         3.2496    9.7297    3.2161 H         1 <0>         0.1240
     65 H30         0.9938    9.3354    2.5529 H         1 <0>         0.4224
@<TRIPOS>BOND
     1    1    2 1
     2    1   37 1
     3    1   38 1
     4    1   39 1
     5    2   11 ar
     6    2    3 ar
     7    3    8 ar
     8    3    4 1
     9    4    5 2
    10    4   40 1
    11    5    6 1
    12    5   41 1
    13    6    7 1
    14    6    8 1
    15    8    9 ar
    16    9   10 ar
    17    9   42 1
    18   10   11 ar
    19   10   43 1
    20   11   12 1
    21   12   13 1
    22   12   44 1
    23   13   18 ar
    24   13   14 ar
    25   14   15 ar
    26   14   21 1
    27   15   16 ar
    28   15   45 1
    29   16   17 ar
    30   17   18 ar
    31   17   46 1
    32   18   19 1
    33   19   20 3
    34   21   22 2
    35   21   47 1
    36   22   23 1
    37   22   48 1
    38   23   28 ar
    39   23   24 ar
    40   24   25 ar
    41   24   49 1
    42   25   26 ar
    43   25   50 1
    44   26   27 ar
    45   26   51 1
    46   27   28 ar
    47   27   29 1
    48   29   30 1
    49   29   52 1
    50   29   53 1
    51   30   35 1
    52   30   31 1
    53   31   32 1
    54   31   54 1
    55   31   55 1
    56   32   33 1
    57   32   56 1
    58   32   57 1
    59   33   34 1
    60   33   36 1
    61   33   65 1
    62   34   35 1
    63   34   58 1
    64   34   59 1
    65   35   60 1
    66   35   61 1
    67   36   62 1
    68   36   63 1
    69   36   64 1
@<TRIPOS>MOLECULE
CHEMBL1084411__1
   65    69     0     0     0
SMALL
USER_CHARGES

@<TRIPOS>ATOM
      1 C1          0.1811    1.6470    0.1127 C.3       1 <0>        -0.1012
      2 C2         -1.0198    0.7802    0.3912 C.ar      1 <0>        -0.1082
      3 C3         -2.0998    0.7707   -0.4939 C.ar      1 <0>        -0.0646
      4 C4         -2.3880    1.4620   -1.7530 C.2       1 <0>        -0.2180
      5 C5         -3.6005    1.0521   -2.1578 C.2       1 <0>         0.0659
      6 N1         -4.1130    0.1549   -1.2613 N.pl3     1 <0>        -0.5954
      7 H1         -4.9767   -0.2797   -1.3394 H         1 <0>         0.4173
      8 C6         -3.2184   -0.0397   -0.2299 C.ar      1 <0>         0.0636
      9 C7         -3.2392   -0.8285    0.9160 C.ar      1 <0>        -0.0864
     10 C8         -2.1702   -0.8123    1.7827 C.ar      1 <0>        -0.1470
     11 C9         -1.0566   -0.0148    1.5215 C.ar      1 <0>         0.1776
     12 N2          0.0251   -0.0146    2.4100 N.pl3     1 <0>        -0.7089
     13 C10        -0.0585   -0.7117    3.6011 C.ar      1 <0>         0.2635
     14 C11        -0.4784   -0.0762    4.7870 C.ar      1 <0>        -0.1313
     15 C12        -0.5463   -0.8223    5.9633 C.ar      1 <0>         0.1495
     16 N3         -0.2251   -2.1013    5.9755 N.ar      1 <0>        -0.4723
     17 C13         0.1726   -2.7381    4.8928 C.ar      1 <0>         0.1712
     18 C14         0.2675   -2.0796    3.6657 C.ar      1 <0>        -0.0804
     19 C15         0.6945   -2.7825    2.4934 C.1       1 <0>         0.2471
     20 N4          1.0332   -3.3400    1.5634 N.1       1 <0>        -0.3817
     21 C16        -0.8388    1.3511    4.7841 C.2       1 <0>        -0.0291
     22 C17        -1.2377    1.9458    5.9215 C.2       1 <0>        -0.1357
     23 C18        -1.5981    3.3735    5.9186 C.ar      1 <0>         0.1792
     24 C19        -2.0070    3.9885    7.1054 C.ar      1 <0>        -0.1270
     25 C20        -2.3419    5.3298    7.0854 C.ar      1 <0>        -0.0631
     26 C21        -2.2586    6.0168    5.8813 C.ar      1 <0>        -0.1531
     27 C22        -1.8466    5.3474    4.7438 C.ar      1 <0>         0.0643
     28 N5         -1.5272    4.0701    4.7880 N.ar      1 <0>        -0.4661
     29 C23        -1.7555    6.0910    3.4362 C.3       1 <0>         0.0569
     30 N6         -0.3788    6.5630    3.2362 N.4       1 <0>        -0.3835
     31 C24        -0.0449    7.5506    4.2708 C.3       1 <0>        -0.0070
     32 C25         1.3954    8.0286    4.0741 C.3       1 <0>         0.0266
     33 N7          1.5318    8.6273    2.7387 N.3       1 <0>        -0.5424
     34 C26         1.1766    7.6574    1.6931 C.3       1 <0>         0.0247
     35 C27        -0.2619    7.1825    1.9095 C.3       1 <0>        -0.0022
     36 C28         2.8889    9.1505    2.5325 C.3       1 <0>         0.0194
     37 H2          0.9035    1.0870   -0.4812 H         1 <0>         0.0679
     38 H3         -0.1312    2.5346   -0.4374 H         1 <0>         0.0670
     39 H4          0.6397    1.9462    1.0552 H         1 <0>         0.0536
     40 H5         -1.7466    2.1681   -2.2594 H         1 <0>         0.1440
     41 H6         -4.0979    1.3821   -3.0578 H         1 <0>         0.1713
     42 H7         -4.0947   -1.4536    1.1256 H         1 <0>         0.1235
     43 H8         -2.1923   -1.4262    2.6710 H         1 <0>         0.1211
     44 H9          0.8333    0.4746    2.1900 H         1 <0>         0.4142
     45 H10        -0.8664   -0.3455    6.8780 H         1 <0>         0.1706
     46 H11         0.4246   -3.7864    4.9547 H         1 <0>         0.1756
     47 H12        -0.7825    1.9204    3.8681 H         1 <0>         0.1394
     48 H13        -1.2940    1.3765    6.8375 H         1 <0>         0.1409
     49 H14        -2.0608    3.4241    8.0246 H         1 <0>         0.1520
     50 H15        -2.6616    5.8322    7.9864 H         1 <0>         0.1511
     51 H16        -2.5139    7.0651    5.8337 H         1 <0>         0.1442
     52 H17        -2.0336    5.4250    2.6194 H         1 <0>         0.1469
     53 H18        -2.4330    6.9447    3.4558 H         1 <0>         0.1450
     54 H19        -0.7233    8.4003    4.1945 H         1 <0>         0.1401
     55 H20        -0.1447    7.0934    5.2552 H         1 <0>         0.1311
     56 H21         1.6386    8.7725    4.8327 H         1 <0>         0.1236
     57 H22         2.0753    7.1814    4.1639 H         1 <0>         0.0591
     58 H23         1.2601    8.1305    0.7147 H         1 <0>         0.1254
     59 H24         1.8529    6.8041    1.7438 H         1 <0>         0.0605
     60 H25        -0.5226    6.4524    1.1433 H         1 <0>         0.1385
     61 H26        -0.9392    8.0341    1.8452 H         1 <0>         0.1399
     62 H27         3.6096    8.3382    2.6266 H         1 <0>         0.0393
     63 H28         2.9622    9.5878    1.5367 H         1 <0>         0.0844
     64 H29         3.1018    9.9136    3.2810 H         1 <0>         0.0842
     65 H30         0.2568    5.7819    3.2996 H         1 <0>         0.4232
@<TRIPOS>BOND
     1    1    2 1
     2    1   37 1
     3    1   38 1
     4    1   39 1
     5    2   11 ar
     6    2    3 ar
     7    3    8 ar
     8    3    4 1
     9    4    5 2
    10    4   40 1
    11    5    6 1
    12    5   41 1
    13    6    7 1
    14    6    8 1
    15    8    9 ar
    16    9   10 ar
    17    9   42 1
    18   10   11 ar
    19   10   43 1
    20   11   12 1
    21   12   13 1
    22   12   44 1
    23   13   18 ar
    24   13   14 ar
    25   14   15 ar
    26   14   21 1
    27   15   16 ar
    28   15   45 1
    29   16   17 ar
    30   17   18 ar
    31   17   46 1
    32   18   19 1
    33   19   20 3
    34   21   22 2
    35   21   47 1
    36   22   23 1
    37   22   48 1
    38   23   28 ar
    39   23   24 ar
    40   24   25 ar
    41   24   49 1
    42   25   26 ar
    43   25   50 1
    44   26   27 ar
    45   26   51 1
    46   27   28 ar
    47   27   29 1
    48   29   30 1
    49   29   52 1
    50   29   53 1
    51   30   35 1
    52   30   31 1
    53   30   65 1
    54   31   32 1
    55   31   54 1
    56   31   55 1
    57   32   33 1
    58   32   56 1
    59   32   57 1
    60   33   34 1
    61   33   36 1
    62   34   35 1
    63   34   58 1
    64   34   59 1
    65   35   60 1
    66   35   61 1
    67   36   62 1
    68   36   63 1
    69   36   64 1
@<TRIPOS>MOLECULE
CHEMBL427998
   44    46     0     0     0
SMALL
USER_CHARGES

@<TRIPOS>ATOM
      1 C1         -0.0484    1.5024    0.0098 C.3       1 <0>        -0.1250
      2 C2         -0.0196   -0.0043    0.0016 C.ar      1 <0>        -0.0295
      3 C3         -0.0179   -0.6868   -1.1985 C.ar      1 <0>        -0.1239
      4 C4          0.0080   -2.0672   -1.2153 C.ar      1 <0>        -0.0714
      5 C5          0.0331   -2.7839   -0.0162 C.ar      1 <0>        -0.1435
      6 C6          0.0320   -2.1030    1.1989 C.ar      1 <0>        -0.0269
      7 C7          0.0111   -0.7080    1.2093 C.ar      1 <0>         0.0108
      8 C8          0.0157    0.0009    2.4535 C.1       1 <0>        -0.1172
      9 C9          0.0195    0.5821    3.4735 C.1       1 <0>        -0.0869
     10 C10         0.0241    1.2910    4.7177 C.ar      1 <0>        -0.1601
     11 C11        -0.0078    2.6916    4.7475 C.ar      1 <0>         0.2264
     12 N1         -0.0023    3.3073    5.9157 N.ar      1 <0>        -0.5672
     13 C12         0.0327    2.6189    7.0481 C.ar      1 <0>         0.5721
     14 N2          0.0636    1.2937    7.0628 N.ar      1 <0>        -0.5665
     15 C13         0.0546    0.6024    5.9377 C.ar      1 <0>         0.2276
     16 N3          0.0377    3.3037    8.2498 N.pl3     1 <0>        -0.8132
     17 C14         0.0602   -4.2618   -0.0371 C.2       1 <0>         0.5631
     18 O1          0.0821   -4.8842    1.0069 O.2       1 <0>        -0.5095
     19 N4          0.0608   -4.9193   -1.2137 N.am      1 <0>        -0.6695
     20 C15         0.1843   -6.3121   -1.2363 C.ar      1 <0>         0.1440
     21 C16         0.8885   -6.9319   -2.2608 C.ar      1 <0>        -0.1113
     22 C17         1.0085   -8.3074   -2.2803 C.ar      1 <0>        -0.0995
     23 C18         0.4285   -9.0679   -1.2812 C.ar      1 <0>        -0.0861
     24 C19        -0.2731   -8.4541   -0.2601 C.ar      1 <0>        -0.1641
     25 C20        -0.3920   -7.0782   -0.2316 C.ar      1 <0>        -0.0722
     26 C21        -0.9034   -9.2867    0.8264 C.3       1 <0>         0.5092
     27 F1         -0.6440  -10.6403    0.5865 F         1 <0>        -0.1761
     28 F2         -0.3657   -8.9213    2.0652 F         1 <0>        -0.1725
     29 F3         -2.2857   -9.0714    0.8363 F         1 <0>        -0.1756
     30 H1          0.9720    1.8854   -0.0029 H         1 <0>         0.0812
     31 H2         -0.5818    1.8604   -0.8708 H         1 <0>         0.0761
     32 H3         -0.5562    1.8513    0.9089 H         1 <0>         0.0731
     33 H4         -0.0372   -0.1383   -2.1287 H         1 <0>         0.1389
     34 H5          0.0085   -2.5943   -2.1579 H         1 <0>         0.1304
     35 H6          0.0514   -2.6522    2.1286 H         1 <0>         0.1441
     36 H7         -0.0360    3.2590    3.8290 H         1 <0>         0.1741
     37 H8          0.0753   -0.4772    5.9574 H         1 <0>         0.1753
     38 H9          0.0157    4.2734    8.2556 H         1 <0>         0.4176
     39 H10         0.0631    2.8142    9.0869 H         1 <0>         0.4178
     40 H11        -0.0244   -4.4263   -2.0447 H         1 <0>         0.4143
     41 H12         1.3413   -6.3386   -3.0415 H         1 <0>         0.1374
     42 H13         1.5555   -8.7899   -3.0767 H         1 <0>         0.1417
     43 H14         0.5235  -10.1435   -1.2989 H         1 <0>         0.1415
     44 H15        -0.9364   -6.5991    0.5687 H         1 <0>         0.1511
@<TRIPOS>BOND
     1    1    2 1
     2    1   30 1
     3    1   31 1
     4    1   32 1
     5    2    7 ar
     6    2    3 ar
     7    3    4 ar
     8    3   33 1
     9    4    5 ar
    10    4   34 1
    11    5    6 ar
    12    5   17 1
    13    6    7 ar
    14    6   35 1
    15    7    8 1
    16    8    9 3
    17    9   10 1
    18   10   15 ar
    19   10   11 ar
    20   11   12 ar
    21   11   36 1
    22   12   13 ar
    23   13   14 ar
    24   13   16 1
    25   14   15 ar
    26   15   37 1
    27   16   38 1
    28   16   39 1
    29   17   18 2
    30   17   19 am
    31   19   20 1
    32   19   40 1
    33   20   25 ar
    34   20   21 ar
    35   21   22 ar
    36   21   41 1
    37   22   23 ar
    38   22   42 1
    39   23   24 ar
    40   23   43 1
    41   24   25 ar
    42   24   26 1
    43   25   44 1
    44   26   27 1
    45   26   28 1
    46   26   29 1
@<TRIPOS>MOLECULE
CHEMBL221019
   48    51     0     0     0
SMALL
USER_CHARGES

@<TRIPOS>ATOM
      1 C1         -0.0483    1.5024    0.0098 C.3       1 <0>        -0.1278
      2 C2         -0.0195   -0.0043    0.0016 C.ar      1 <0>        -0.0219
      3 C3         -0.0178   -0.6868   -1.1984 C.ar      1 <0>        -0.1257
      4 C4          0.0080   -2.0672   -1.2152 C.ar      1 <0>        -0.0644
      5 C5          0.0326   -2.7841   -0.0161 C.ar      1 <0>        -0.1451
      6 C6          0.0315   -2.1035    1.1990 C.ar      1 <0>        -0.0180
      7 C7          0.0111   -0.7082    1.2095 C.ar      1 <0>        -0.0028
      8 C8          0.0152    0.0006    2.4538 C.1       1 <0>        -0.0584
      9 C9          0.0185    0.5817    3.4739 C.1       1 <0>        -0.1105
     10 C10         0.0225    1.2905    4.7181 C.ar      1 <0>         0.2086
     11 C11        -0.0104    2.7011    4.7220 C.ar      1 <0>         0.1060
     12 N1         -0.0076    3.3641    5.8523 N.ar      1 <0>        -0.4179
     13 C12         0.0267    2.7009    7.0158 C.ar      1 <0>         0.0798
     14 C13         0.0298    3.3904    8.2396 C.ar      1 <0>        -0.0841
     15 C14         0.0646    2.6929    9.4083 C.ar      1 <0>        -0.0919
     16 C15         0.0978    1.2996    9.4115 C.ar      1 <0>        -0.0949
     17 C16         0.0959    0.5972    8.2459 C.ar      1 <0>        -0.0807
     18 C17         0.0599    1.2831    7.0183 C.ar      1 <0>         0.0862
     19 N2          0.0517    0.6179    5.8595 N.ar      1 <0>        -0.4076
     20 C18         0.0593   -4.2621   -0.0372 C.2       1 <0>         0.5628
     21 O1          0.0806   -4.8846    1.0067 O.2       1 <0>        -0.5080
     22 N3          0.0598   -4.9193   -1.2139 N.am      1 <0>        -0.6691
     23 C19         0.1828   -6.3122   -1.2367 C.ar      1 <0>         0.1437
     24 C20         0.8871   -6.9321   -2.2611 C.ar      1 <0>        -0.1111
     25 C21         1.0071   -8.3076   -2.2805 C.ar      1 <0>        -0.0995
     26 C22         0.4266   -9.0680   -1.2816 C.ar      1 <0>        -0.0859
     27 C23        -0.2754   -8.4542   -0.2608 C.ar      1 <0>        -0.1640
     28 C24        -0.3939   -7.0783   -0.2322 C.ar      1 <0>        -0.0721
     29 C25        -0.9066   -9.2868    0.8252 C.3       1 <0>         0.5091
     30 F1         -0.6474  -10.6404    0.5852 F         1 <0>        -0.1761
     31 F2         -0.3695   -8.9217    2.0644 F         1 <0>        -0.1724
     32 F3         -2.2888   -9.0711    0.8343 F         1 <0>        -0.1756
     33 H1          0.9721    1.8854   -0.0029 H         1 <0>         0.0836
     34 H2         -0.5817    1.8604   -0.8708 H         1 <0>         0.0785
     35 H3         -0.5562    1.8513    0.9089 H         1 <0>         0.0738
     36 H4         -0.0371   -0.1383   -2.1286 H         1 <0>         0.1410
     37 H5          0.0089   -2.5943   -2.1579 H         1 <0>         0.1322
     38 H6          0.0505   -2.6529    2.1287 H         1 <0>         0.1464
     39 H7         -0.0377    3.2388    3.7857 H         1 <0>         0.1804
     40 H8          0.0050    4.4700    8.2533 H         1 <0>         0.1434
     41 H9          0.0668    3.2272   10.3469 H         1 <0>         0.1399
     42 H10         0.1258    0.7699   10.3522 H         1 <0>         0.1402
     43 H11         0.1223   -0.4824    8.2633 H         1 <0>         0.1434
     44 H12        -0.0250   -4.4263   -2.0449 H         1 <0>         0.4143
     45 H13         1.3400   -6.3389   -3.0418 H         1 <0>         0.1375
     46 H14         1.5545   -8.7902   -3.0766 H         1 <0>         0.1419
     47 H15         0.5216  -10.1437   -1.2992 H         1 <0>         0.1416
     48 H16        -0.9386   -6.5991    0.5679 H         1 <0>         0.1511
@<TRIPOS>BOND
     1    1    2 1
     2    1   33 1
     3    1   34 1
     4    1   35 1
     5    2    7 ar
     6    2    3 ar
     7    3    4 ar
     8    3   36 1
     9    4    5 ar
    10    4   37 1
    11    5    6 ar
    12    5   20 1
    13    6    7 ar
    14    6   38 1
    15    7    8 1
    16    8    9 3
    17    9   10 1
    18   10   19 ar
    19   10   11 ar
    20   11   12 ar
    21   11   39 1
    22   12   13 ar
    23   13   18 ar
    24   13   14 ar
    25   14   15 ar
    26   14   40 1
    27   15   16 ar
    28   15   41 1
    29   16   17 ar
    30   16   42 1
    31   17   18 ar
    32   17   43 1
    33   18   19 ar
    34   20   21 2
    35   20   22 am
    36   22   23 1
    37   22   44 1
    38   23   28 ar
    39   23   24 ar
    40   24   25 ar
    41   24   45 1
    42   25   26 ar
    43   25   46 1
    44   26   27 ar
    45   26   47 1
    46   27   28 ar
    47   27   29 1
    48   28   48 1
    49   29   30 1
    50   29   31 1
    51   29   32 1
@<TRIPOS>MOLECULE
CHEMBL130719
   48    50     0     0     0
SMALL
USER_CHARGES

@<TRIPOS>ATOM
      1 C1          0.1361    1.3900   -0.0647 C.3       1 <0>        -0.1152
      2 C2          0.0861   -0.1161   -0.0679 C.ar      1 <0>        -0.0783
      3 C3          0.7580   -0.8267   -1.0456 C.ar      1 <0>        -0.1180
      4 C4          0.7143   -2.2070   -1.0514 C.ar      1 <0>        -0.0834
      5 C5         -0.0057   -2.8815   -0.0737 C.ar      1 <0>         0.1259
      6 C6         -0.6794   -2.1649    0.9069 C.ar      1 <0>        -0.0587
      7 C7         -0.6269   -0.7848    0.9102 C.ar      1 <0>        -0.1176
      8 C8         -1.4618   -2.8926    1.9697 C.3       1 <0>        -0.1081
      9 N1         -0.0524   -4.2792   -0.0769 N.am      1 <0>        -0.6716
     10 C9          0.3446   -4.9692    1.0106 C.2       1 <0>         0.6182
     11 O1          0.6595   -4.3763    2.0263 O.2       1 <0>        -0.5039
     12 C10         0.3972   -6.4306    0.9706 C.2       1 <0>        -0.3436
     13 C11         0.7648   -7.3321    1.9601 C.2       1 <0>         0.1882
     14 N2          0.7157   -8.6001    1.6385 N.2       1 <0>        -0.5578
     15 C12         0.3361   -8.9931    0.4362 C.2       1 <0>         0.2667
     16 S1         -0.0011   -7.5504   -0.3622 S.3       1 <0>         0.2638
     17 N3          0.2338  -10.2838   -0.0494 N.am      1 <0>        -0.6051
     18 C13        -0.1751  -10.4969   -1.3159 C.2       1 <0>         0.5643
     19 O2         -0.4539   -9.5546   -2.0312 O.2       1 <0>        -0.4910
     20 C14        -0.2844  -11.8764   -1.8349 C.ar      1 <0>        -0.1405
     21 C15         0.0296  -12.9612   -1.0142 C.ar      1 <0>        -0.0819
     22 C16        -0.0746  -14.2462   -1.5049 C.ar      1 <0>        -0.1242
     23 C17        -0.4888  -14.4612   -2.8075 C.ar      1 <0>        -0.0812
     24 C18        -0.8011  -13.3905   -3.6264 C.ar      1 <0>        -0.1253
     25 C19        -0.7077  -12.1006   -3.1462 C.ar      1 <0>        -0.0492
     26 C20         1.1974   -6.8759    3.3297 C.3       1 <0>        -0.0899
     27 C21         1.4464   -2.9805   -2.1176 C.3       1 <0>        -0.1126
     28 H1          0.9876    1.7241    0.5281 H         1 <0>         0.0716
     29 H2          0.2409    1.7522   -1.0874 H         1 <0>         0.0668
     30 H3         -0.7841    1.7832    0.3674 H         1 <0>         0.0670
     31 H4          1.3173   -0.3015   -1.8058 H         1 <0>         0.1259
     32 H5         -1.1470   -0.2271    1.6750 H         1 <0>         0.1255
     33 H6         -0.8522   -2.9881    2.8682 H         1 <0>         0.0862
     34 H7         -2.3669   -2.3317    2.2026 H         1 <0>         0.0614
     35 H8         -1.7320   -3.8843    1.6069 H         1 <0>         0.0562
     36 H9         -0.3706   -4.7520   -0.8618 H         1 <0>         0.4050
     37 H10         0.4563  -11.0359    0.5214 H         1 <0>         0.4275
     38 H11         0.3537  -12.7947    0.0025 H         1 <0>         0.1279
     39 H12         0.1680  -15.0863   -0.8711 H         1 <0>         0.1350
     40 H13        -0.5683  -15.4692   -3.1869 H         1 <0>         0.1332
     41 H14        -1.1231  -13.5651   -4.6424 H         1 <0>         0.1364
     42 H15        -0.9567  -11.2660   -3.7847 H         1 <0>         0.1414
     43 H16         0.3269   -6.8095    3.9823 H         1 <0>         0.0835
     44 H17         1.9080   -7.5914    3.7434 H         1 <0>         0.0759
     45 H18         1.6702   -5.8967    3.2539 H         1 <0>         0.0983
     46 H19         2.4598   -3.1960   -1.7789 H         1 <0>         0.0725
     47 H20         0.9219   -3.9159   -2.3127 H         1 <0>         0.0618
     48 H21         1.4870   -2.3891   -3.0323 H         1 <0>         0.0709
@<TRIPOS>BOND
     1    1    2 1
     2    1   28 1
     3    1   29 1
     4    1   30 1
     5    2    7 ar
     6    2    3 ar
     7    3    4 ar
     8    3   31 1
     9    4    5 ar
    10    4   27 1
    11    5    6 ar
    12    5    9 1
    13    6    7 ar
    14    6    8 1
    15    7   32 1
    16    8   33 1
    17    8   34 1
    18    8   35 1
    19    9   10 am
    20    9   36 1
    21   10   11 2
    22   10   12 1
    23   12   16 1
    24   12   13 2
    25   13   14 1
    26   13   26 1
    27   14   15 2
    28   15   16 1
    29   15   17 1
    30   17   18 am
    31   17   37 1
    32   18   19 2
    33   18   20 1
    34   20   25 ar
    35   20   21 ar
    36   21   22 ar
    37   21   38 1
    38   22   23 ar
    39   22   39 1
    40   23   24 ar
    41   23   40 1
    42   24   25 ar
    43   24   41 1
    44   25   42 1
    45   26   43 1
    46   26   44 1
    47   26   45 1
    48   27   46 1
    49   27   47 1
    50   27   48 1
@<TRIPOS>MOLECULE
CHEMBL26625
   51    55     0     0     0
SMALL
USER_CHARGES

@<TRIPOS>ATOM
      1 C1          4.2894   -0.1077   -0.6493 C.3       1 <0>        -0.1000
      2 C2          3.2631   -1.2021   -0.5080 C.2       1 <0>        -0.1587
      3 C3          2.5449   -1.5977   -1.5712 C.2       1 <0>         0.1295
      4 N1          1.6039   -2.5848   -1.4908 N.am      1 <0>        -0.6209
      5 C4          1.3338   -3.2280   -0.3383 C.2       1 <0>         0.5465
      6 C5          2.0668   -2.8657    0.8751 C.ar      1 <0>        -0.1306
      7 C6          3.0452   -1.8469    0.7892 C.ar      1 <0>         0.0246
      8 C7          3.7698   -1.4748    1.9220 C.ar      1 <0>        -0.1085
      9 C8          3.5375   -2.1064    3.1329 C.ar      1 <0>         0.0297
     10 C9          2.5677   -3.1287    3.2302 C.ar      1 <0>         0.0839
     11 C10         1.8277   -3.5000    2.1010 C.ar      1 <0>         0.1089
     12 N2          0.9730   -4.5029    2.5100 N.pl3     1 <0>        -0.4904
     13 C11         1.1912   -4.7036    3.8433 C.2       1 <0>         0.5390
     14 N3          2.1395   -3.9017    4.2607 N.2       1 <0>        -0.5070
     15 N4          0.5297   -5.6282    4.6270 N.pl3     1 <0>        -0.6499
     16 C12         0.8818   -5.7849    5.9720 C.ar      1 <0>         0.1790
     17 C13         0.7782   -4.7117    6.8487 C.ar      1 <0>        -0.0129
     18 C14         1.1270   -4.8702    8.1768 C.ar      1 <0>        -0.0966
     19 C15         1.5790   -6.0948    8.6333 C.ar      1 <0>        -0.0946
     20 C16         1.6838   -7.1649    7.7637 C.ar      1 <0>        -0.0955
     21 C17         1.3305   -7.0157    6.4358 C.ar      1 <0>        -0.0347
     22 Cl1         1.4551   -8.3618    5.3467 Cl        1 <0>        -0.0492
     23 Cl2         0.2121   -3.1736    6.2765 Cl        1 <0>        -0.0372
     24 C18         0.0095   -5.2190    1.6703 C.3       1 <0>         0.0898
     25 C19         4.3104   -1.7078    4.3317 C.ar      1 <0>        -0.1215
     26 C20         4.1672   -0.4276    4.8762 C.ar      1 <0>        -0.0036
     27 C21         4.9104   -0.1030    5.9965 C.ar      1 <0>        -0.2019
     28 C22         5.7666   -1.0477    6.5405 C.ar      1 <0>         0.3493
     29 N5          5.8826   -2.2500    6.0051 N.ar      1 <0>        -0.5467
     30 C23         5.1898   -2.6065    4.9401 C.ar      1 <0>         0.3780
     31 F1          5.3363   -3.8492    4.4308 F         1 <0>        -0.0919
     32 F2          6.4941   -0.7341    7.6348 F         1 <0>        -0.1021
     33 O1          0.4866   -4.1033   -0.3066 O.2       1 <0>        -0.5388
     34 C24         2.7851   -0.9289   -2.9001 C.3       1 <0>        -0.1251
     35 H1          5.1028   -0.2792    0.0557 H         1 <0>         0.0713
     36 H2          4.6833   -0.1081   -1.6656 H         1 <0>         0.0717
     37 H3          3.8244    0.8557   -0.4402 H         1 <0>         0.0723
     38 H4          4.5129   -0.6939    1.8547 H         1 <0>         0.1447
     39 H5         -0.1792   -6.1691    4.2450 H         1 <0>         0.4223
     40 H6          1.0468   -4.0366    8.8587 H         1 <0>         0.1435
     41 H7          1.8511   -6.2156    9.6714 H         1 <0>         0.1457
     42 H8          2.0378   -8.1196    8.1236 H         1 <0>         0.1451
     43 H9          0.5442   -5.8645    0.9735 H         1 <0>         0.0816
     44 H10        -0.6416   -5.8250    2.3003 H         1 <0>         0.0645
     45 H11        -0.5908   -4.5004    1.1124 H         1 <0>         0.1092
     46 H12         3.4930    0.2901    4.4325 H         1 <0>         0.1595
     47 H13         4.8248    0.8767    6.4429 H         1 <0>         0.1604
     48 H14         3.5966   -1.4369   -3.4211 H         1 <0>         0.0872
     49 H15         1.8780   -0.9810   -3.5022 H         1 <0>         0.0740
     50 H16         3.0543    0.1148   -2.7382 H         1 <0>         0.0932
     51 H17         1.1133   -2.8307   -2.2906 H         1 <0>         0.4139
@<TRIPOS>BOND
     1    1    2 1
     2    1   35 1
     3    1   36 1
     4    1   37 1
     5    2    7 1
     6    2    3 2
     7    3    4 1
     8    3   34 1
     9    4    5 am
    10    4   51 1
    11    5    6 1
    12    5   33 2
    13    6   11 ar
    14    6    7 ar
    15    7    8 ar
    16    8    9 ar
    17    8   38 1
    18    9   10 ar
    19    9   25 1
    20   10   14 1
    21   10   11 ar
    22   11   12 1
    23   12   13 1
    24   12   24 1
    25   13   14 2
    26   13   15 1
    27   15   16 1
    28   15   39 1
    29   16   21 ar
    30   16   17 ar
    31   17   18 ar
    32   17   23 1
    33   18   19 ar
    34   18   40 1
    35   19   20 ar
    36   19   41 1
    37   20   21 ar
    38   20   42 1
    39   21   22 1
    40   24   43 1
    41   24   44 1
    42   24   45 1
    43   25   30 ar
    44   25   26 ar
    45   26   27 ar
    46   26   46 1
    47   27   28 ar
    48   27   47 1
    49   28   29 ar
    50   28   32 1
    51   29   30 ar
    52   30   31 1
    53   34   48 1
    54   34   49 1
    55   34   50 1
@<TRIPOS>MOLECULE
CHEMBL220847
   64    68     0     0     0
SMALL
USER_CHARGES

@<TRIPOS>ATOM
      1 C1          0.7596    0.5166   -0.9867 C.3       1 <0>        -0.1156
      2 C2         -0.0827    1.2434    0.0299 C.ar      1 <0>        -0.1250
      3 C3         -0.4554    2.5549   -0.1931 C.ar      1 <0>        -0.0792
      4 C4         -1.2276    3.2242    0.7369 C.ar      1 <0>        -0.1549
      5 C5         -1.6315    2.5806    1.8987 C.ar      1 <0>         0.1233
      6 C6         -1.2599    1.2652    2.1262 C.ar      1 <0>        -0.1529
      7 C7         -0.4887    0.5924    1.1880 C.ar      1 <0>         0.1655
      8 N1         -0.1165   -0.7364    1.4112 N.pl3     1 <0>        -0.6337
      9 C8         -0.0389   -1.2267    2.7064 C.ar      1 <0>         0.4863
     10 C9          0.1882   -2.5818    2.9360 C.ar      1 <0>        -0.3184
     11 C10         0.2580   -3.0268    4.2502 C.ar      1 <0>         0.4210
     12 N2          0.1069   -2.1511    5.2393 N.ar      1 <0>        -0.6189
     13 C11        -0.1076   -0.8704    4.9849 C.ar      1 <0>         0.6265
     14 N3         -0.1750   -0.4084    3.7468 N.ar      1 <0>        -0.5895
     15 N4         -0.2612    0.0154    6.0481 N.pl3     1 <0>        -0.4313
     16 C12        -0.4928    1.3571    5.9574 C.2       1 <0>         0.3021
     17 N5         -0.5835    1.8753    7.1465 N.2       1 <0>        -0.4706
     18 C13        -0.4171    0.9059    8.0837 C.ar      1 <0>         0.0508
     19 C14        -0.2136   -0.3015    7.3945 C.ar      1 <0>         0.0574
     20 C15        -0.0181   -1.4784    8.1019 C.ar      1 <0>        -0.0937
     21 C16        -0.0273   -1.4596    9.4809 C.ar      1 <0>        -0.1058
     22 C17        -0.2312   -0.2709   10.1662 C.ar      1 <0>        -0.1186
     23 C18        -0.4185    0.9081    9.4806 C.ar      1 <0>        -0.0618
     24 O1          0.4769   -4.3368    4.5206 O.3       1 <0>        -0.2782
     25 C19         0.5351   -4.7141    5.8977 C.3       1 <0>         0.0700
     26 C20         0.7875   -6.2194    6.0039 C.3       1 <0>         0.0539
     27 N6          2.0967   -6.5389    5.4193 N.3       1 <0>        -0.5353
     28 C21         2.1830   -7.9633    5.0674 C.3       1 <0>         0.0266
     29 C22         3.5359   -8.2419    4.4088 C.3       1 <0>        -0.0025
     30 N7          4.6159   -7.8829    5.3374 N.4       1 <0>        -0.3882
     31 C23         4.5313   -6.4525    5.6602 C.3       1 <0>        -0.0018
     32 C24         3.1866   -6.1590    6.3292 C.3       1 <0>         0.0205
     33 C25         5.9141   -8.1674    4.7116 C.3       1 <0>        -0.0458
     34 O2         -2.3906    3.2404    2.8126 O.3       1 <0>        -0.4950
     35 H1          0.1107    0.0224   -1.7097 H         1 <0>         0.0731
     36 H2          1.4020    1.2299   -1.5030 H         1 <0>         0.0757
     37 H3          1.3754   -0.2283   -0.4826 H         1 <0>         0.0601
     38 H4         -0.1422    3.0581   -1.0959 H         1 <0>         0.1334
     39 H5         -1.5170    4.2495    0.5599 H         1 <0>         0.1325
     40 H6         -1.5732    0.7629    3.0295 H         1 <0>         0.1498
     41 H7          0.0876   -1.3156    0.6603 H         1 <0>         0.4271
     42 H8          0.3068   -3.2700    2.1122 H         1 <0>         0.1569
     43 H9         -0.5869    1.9079    5.0332 H         1 <0>         0.2263
     44 H10         0.1405   -2.4072    7.5741 H         1 <0>         0.1330
     45 H11         0.1250   -2.3765   10.0308 H         1 <0>         0.1309
     46 H12        -0.2366   -0.2692   11.2462 H         1 <0>         0.1348
     47 H13        -0.5782    1.8296   10.0208 H         1 <0>         0.1368
     48 H14         1.3452   -4.1744    6.3883 H         1 <0>         0.0719
     49 H15        -0.4102   -4.4691    6.3818 H         1 <0>         0.0839
     50 H16         0.7754   -6.5167    7.0525 H         1 <0>         0.0767
     51 H17         0.0078   -6.7574    5.4647 H         1 <0>         0.1005
     52 H18         2.0865   -8.5673    5.9696 H         1 <0>         0.0618
     53 H19         1.3816   -8.2155    4.3730 H         1 <0>         0.1253
     54 H20         3.6076   -9.3006    4.1599 H         1 <0>         0.1366
     55 H21         3.6264   -7.6479    3.4993 H         1 <0>         0.1380
     56 H22         5.3409   -6.1847    6.3390 H         1 <0>         0.1363
     57 H23         4.6166   -5.8677    4.7443 H         1 <0>         0.1374
     58 H24         3.1175   -5.0950    6.5553 H         1 <0>         0.1217
     59 H25         3.1067   -6.7333    7.2522 H         1 <0>         0.0637
     60 H26         6.0123   -7.5831    3.7967 H         1 <0>         0.1230
     61 H27         6.7157   -7.9012    5.4005 H         1 <0>         0.1244
     62 H28         5.9776   -9.2292    4.4732 H         1 <0>         0.1249
     63 H29        -3.3430    3.1541    2.6687 H         1 <0>         0.3937
     64 H30         4.5251   -8.4245    6.1839 H         1 <0>         0.4226
@<TRIPOS>BOND
     1    1    2 1
     2    1   35 1
     3    1   36 1
     4    1   37 1
     5    2    7 ar
     6    2    3 ar
     7    3    4 ar
     8    3   38 1
     9    4    5 ar
    10    4   39 1
    11    5    6 ar
    12    5   34 1
    13    6    7 ar
    14    6   40 1
    15    7    8 1
    16    8    9 1
    17    8   41 1
    18    9   14 ar
    19    9   10 ar
    20   10   11 ar
    21   10   42 1
    22   11   12 ar
    23   11   24 1
    24   12   13 ar
    25   13   14 ar
    26   13   15 1
    27   15   19 1
    28   15   16 1
    29   16   17 2
    30   16   43 1
    31   17   18 1
    32   18   23 ar
    33   18   19 ar
    34   19   20 ar
    35   20   21 ar
    36   20   44 1
    37   21   22 ar
    38   21   45 1
    39   22   23 ar
    40   22   46 1
    41   23   47 1
    42   24   25 1
    43   25   26 1
    44   25   48 1
    45   25   49 1
    46   26   27 1
    47   26   50 1
    48   26   51 1
    49   27   32 1
    50   27   28 1
    51   28   29 1
    52   28   52 1
    53   28   53 1
    54   29   30 1
    55   29   54 1
    56   29   55 1
    57   30   31 1
    58   30   33 1
    59   30   64 1
    60   31   32 1
    61   31   56 1
    62   31   57 1
    63   32   58 1
    64   32   59 1
    65   33   60 1
    66   33   61 1
    67   33   62 1
    68   34   63 1
@<TRIPOS>MOLECULE
CHEMBL221233
   60    64     0     0     0
SMALL
USER_CHARGES

@<TRIPOS>ATOM
      1 C1         -2.4357   -1.1040    1.4977 C.3       1 <0>        -0.1149
      2 C2         -1.1567   -1.2537    0.7151 C.ar      1 <0>        -0.0859
      3 C3         -1.1590   -1.9324   -0.4883 C.ar      1 <0>        -0.0953
      4 C4          0.0120   -2.0711   -1.2086 C.ar      1 <0>        -0.1322
      5 C5          1.1948   -1.5287   -0.7253 C.ar      1 <0>         0.1119
      6 C6          1.2015   -0.8473    0.4813 C.ar      1 <0>        -0.1377
      7 C7          0.0231   -0.7043    1.2012 C.ar      1 <0>         0.1521
      8 N1          0.0246   -0.0130    2.4161 N.pl3     1 <0>        -0.6606
      9 C8         -0.0593   -0.7115    3.6118 C.ar      1 <0>         0.4941
     10 C9         -0.0351   -2.1032    3.6189 C.ar      1 <0>        -0.3590
     11 C10        -0.1215   -2.7603    4.8426 C.ar      1 <0>         0.4944
     12 N2         -0.2237   -2.0409    5.9581 N.ar      1 <0>        -0.6189
     13 C11        -0.2435   -0.7188    5.9126 C.ar      1 <0>         0.6243
     14 N3         -0.1584   -0.0598    4.7682 N.ar      1 <0>        -0.6144
     15 N4         -0.3520   -0.0014    7.1010 N.pl3     1 <0>        -0.4279
     16 C12        -0.4379   -0.5253    8.3581 C.2       1 <0>         0.2979
     17 N5         -0.5275    0.4310    9.2346 N.2       1 <0>        -0.4806
     18 C13        -0.5055    1.6345    8.6046 C.ar      1 <0>         0.0468
     19 C14        -0.3867    1.3762    7.2286 C.ar      1 <0>         0.0611
     20 C15        -0.3330    2.4297    6.3281 C.ar      1 <0>        -0.0872
     21 C16        -0.3932    3.7287    6.7875 C.ar      1 <0>        -0.1072
     22 C17        -0.5072    3.9894    8.1453 C.ar      1 <0>        -0.1198
     23 C18        -0.5700    2.9561    9.0527 C.ar      1 <0>        -0.0683
     24 N6         -0.1019   -4.1453    4.8992 N.pl3     1 <0>        -0.7062
     25 C19         0.0103   -4.9273    3.6655 C.3       1 <0>         0.1295
     26 C20         0.0091   -6.4191    4.0054 C.3       1 <0>         0.0446
     27 N7          0.1217   -7.2032    2.7683 N.3       1 <0>        -0.5321
     28 C21        -1.0757   -7.0411    1.9310 C.3       1 <0>         0.0119
     29 C22        -0.8913   -7.8251    0.6289 C.3       1 <0>         0.0631
     30 O1         -0.6280   -9.1965    0.9374 O.3       1 <0>        -0.3841
     31 C23         0.5319   -9.3912    1.7511 C.3       1 <0>         0.0629
     32 C24         0.3619   -8.6231    3.0645 C.3       1 <0>         0.0185
     33 O2          2.3457   -1.6664   -1.4347 O.3       1 <0>        -0.4960
     34 H1         -2.9466   -0.1923    1.1880 H         1 <0>         0.0746
     35 H2         -3.0796   -1.9631    1.3094 H         1 <0>         0.0698
     36 H3         -2.2062   -1.0483    2.5618 H         1 <0>         0.0649
     37 H4         -2.0778   -2.3557   -0.8666 H         1 <0>         0.1341
     38 H5          0.0070   -2.6025   -2.1489 H         1 <0>         0.1344
     39 H6          2.1209   -0.4249    0.8590 H         1 <0>         0.1341
     40 H7          0.0844    0.9552    2.4232 H         1 <0>         0.4183
     41 H8          0.0483   -2.6596    2.6970 H         1 <0>         0.1448
     42 H9         -0.4327   -1.5799    8.5910 H         1 <0>         0.2237
     43 H10        -0.2439    2.2333    5.2699 H         1 <0>         0.1396
     44 H11        -0.3509    4.5484    6.0856 H         1 <0>         0.1318
     45 H12        -0.5530    5.0110    8.4927 H         1 <0>         0.1322
     46 H13        -0.6571    3.1666   10.1084 H         1 <0>         0.1329
     47 H14        -0.1626   -4.5966    5.7557 H         1 <0>         0.4098
     48 H15        -0.8345   -4.7023    3.0146 H         1 <0>         0.0684
     49 H16         0.9395   -4.6714    3.1564 H         1 <0>         0.0789
     50 H17         0.8540   -6.6441    4.6563 H         1 <0>         0.0870
     51 H18        -0.9201   -6.6750    4.5145 H         1 <0>         0.0464
     52 H19        -1.9470   -7.4211    2.4643 H         1 <0>         0.0464
     53 H20        -1.2200   -5.9851    1.7026 H         1 <0>         0.0886
     54 H21        -1.7993   -7.7546    0.0299 H         1 <0>         0.0998
     55 H22        -0.0526   -7.4102    0.0699 H         1 <0>         0.0620
     56 H23         0.6532  -10.4533    1.9638 H         1 <0>         0.1009
     57 H24         1.4120   -9.0218    1.2248 H         1 <0>         0.0621
     58 H25         1.2671   -8.7218    3.6637 H         1 <0>         0.0895
     59 H26        -0.4865   -9.0284    3.6161 H         1 <0>         0.0465
     60 H27         2.5067   -0.9515   -2.0657 H         1 <0>         0.3938
@<TRIPOS>BOND
     1    1    2 1
     2    1   34 1
     3    1   35 1
     4    1   36 1
     5    2    7 ar
     6    2    3 ar
     7    3    4 ar
     8    3   37 1
     9    4    5 ar
    10    4   38 1
    11    5    6 ar
    12    5   33 1
    13    6    7 ar
    14    6   39 1
    15    7    8 1
    16    8    9 1
    17    8   40 1
    18    9   14 ar
    19    9   10 ar
    20   10   11 ar
    21   10   41 1
    22   11   12 ar
    23   11   24 1
    24   12   13 ar
    25   13   14 ar
    26   13   15 1
    27   15   19 1
    28   15   16 1
    29   16   17 2
    30   16   42 1
    31   17   18 1
    32   18   23 ar
    33   18   19 ar
    34   19   20 ar
    35   20   21 ar
    36   20   43 1
    37   21   22 ar
    38   21   44 1
    39   22   23 ar
    40   22   45 1
    41   23   46 1
    42   24   25 1
    43   24   47 1
    44   25   26 1
    45   25   48 1
    46   25   49 1
    47   26   27 1
    48   26   50 1
    49   26   51 1
    50   27   32 1
    51   27   28 1
    52   28   29 1
    53   28   52 1
    54   28   53 1
    55   29   30 1
    56   29   54 1
    57   29   55 1
    58   30   31 1
    59   31   32 1
    60   31   56 1
    61   31   57 1
    62   32   58 1
    63   32   59 1
    64   33   60 1
@<TRIPOS>MOLECULE
CHEMBL221233__1
   61    65     0     0     0
SMALL
USER_CHARGES

@<TRIPOS>ATOM
      1 C1         -2.4357   -1.1040    1.4977 C.3       1 <0>        -0.1167
      2 C2         -1.1567   -1.2537    0.7151 C.ar      1 <0>        -0.0873
      3 C3         -1.1590   -1.9324   -0.4883 C.ar      1 <0>        -0.0980
      4 C4          0.0120   -2.0711   -1.2086 C.ar      1 <0>        -0.1344
      5 C5          1.1948   -1.5287   -0.7253 C.ar      1 <0>         0.1132
      6 C6          1.2015   -0.8473    0.4813 C.ar      1 <0>        -0.1379
      7 C7          0.0231   -0.7043    1.2012 C.ar      1 <0>         0.1503
      8 N1          0.0246   -0.0130    2.4161 N.pl3     1 <0>        -0.6574
      9 C8         -0.0593   -0.7115    3.6118 C.ar      1 <0>         0.5013
     10 C9         -0.0351   -2.1032    3.6189 C.ar      1 <0>        -0.3648
     11 C10        -0.1215   -2.7603    4.8426 C.ar      1 <0>         0.4921
     12 N2         -0.2237   -2.0409    5.9581 N.ar      1 <0>        -0.6149
     13 C11        -0.2435   -0.7188    5.9126 C.ar      1 <0>         0.6368
     14 N3         -0.1584   -0.0598    4.7682 N.ar      1 <0>        -0.6064
     15 N4         -0.3520   -0.0014    7.1010 N.pl3     1 <0>        -0.4314
     16 C12        -0.4379   -0.5253    8.3581 C.2       1 <0>         0.2926
     17 N5         -0.5275    0.4310    9.2346 N.2       1 <0>        -0.4713
     18 C13        -0.5055    1.6345    8.6046 C.ar      1 <0>         0.0469
     19 C14        -0.3867    1.3762    7.2286 C.ar      1 <0>         0.0588
     20 C15        -0.3330    2.4297    6.3281 C.ar      1 <0>        -0.0903
     21 C16        -0.3932    3.7287    6.7875 C.ar      1 <0>        -0.1011
     22 C17        -0.5072    3.9894    8.1453 C.ar      1 <0>        -0.1162
     23 C18        -0.5700    2.9561    9.0527 C.ar      1 <0>        -0.0643
     24 N6         -0.1019   -4.1453    4.8992 N.pl3     1 <0>        -0.7122
     25 C19         0.0103   -4.9273    3.6655 C.3       1 <0>         0.1065
     26 C20         0.0091   -6.4191    4.0054 C.3       1 <0>        -0.0211
     27 N7          0.1217   -7.2032    2.7683 N.4       1 <0>        -0.3816
     28 C21        -1.0762   -6.9925    1.9439 C.3       1 <0>        -0.0519
     29 C22        -0.9564   -7.8103    0.6555 C.3       1 <0>         0.0368
     30 O1         -0.7835   -9.1908    0.9877 O.3       1 <0>        -0.3549
     31 C23         0.3584   -9.4442    1.8109 C.3       1 <0>         0.0357
     32 C24         0.2411   -8.6294    3.1014 C.3       1 <0>        -0.0427
     33 O2          2.3457   -1.6664   -1.4347 O.3       1 <0>        -0.4986
     34 H1         -2.9466   -0.1923    1.1880 H         1 <0>         0.0788
     35 H2         -3.0796   -1.9631    1.3094 H         1 <0>         0.0694
     36 H3         -2.2062   -1.0483    2.5618 H         1 <0>         0.0643
     37 H4         -2.0778   -2.3557   -0.8666 H         1 <0>         0.1352
     38 H5          0.0070   -2.6025   -2.1489 H         1 <0>         0.1355
     39 H6          2.1209   -0.4249    0.8590 H         1 <0>         0.1361
     40 H7          0.0844    0.9552    2.4232 H         1 <0>         0.4226
     41 H8          0.0483   -2.6596    2.6970 H         1 <0>         0.1414
     42 H9         -0.4327   -1.5799    8.5910 H         1 <0>         0.2237
     43 H10        -0.2439    2.2333    5.2699 H         1 <0>         0.1386
     44 H11        -0.3509    4.5484    6.0856 H         1 <0>         0.1346
     45 H12        -0.5530    5.0110    8.4927 H         1 <0>         0.1359
     46 H13        -0.6571    3.1666   10.1084 H         1 <0>         0.1362
     47 H14        -0.1626   -4.5966    5.7557 H         1 <0>         0.4167
     48 H15        -0.8345   -4.7023    3.0146 H         1 <0>         0.0876
     49 H16         0.9395   -4.6714    3.1564 H         1 <0>         0.0885
     50 H17         0.8540   -6.6441    4.6563 H         1 <0>         0.1438
     51 H18        -0.9201   -6.6750    4.5145 H         1 <0>         0.1420
     52 H19        -1.9592   -7.3126    2.4970 H         1 <0>         0.1429
     53 H20        -1.1656   -5.9348    1.6961 H         1 <0>         0.1433
     54 H21        -1.8626   -7.6895    0.0620 H         1 <0>         0.1436
     55 H22        -0.0964   -7.4633    0.0827 H         1 <0>         0.0832
     56 H23         0.4038  -10.5059    2.0536 H         1 <0>         0.1444
     57 H24         1.2634   -9.1531    1.2776 H         1 <0>         0.0830
     58 H25         1.1295   -8.7869    3.7129 H         1 <0>         0.1455
     59 H26        -0.6424   -8.9489    3.6540 H         1 <0>         0.1418
     60 H27         2.5067   -0.9515   -2.0657 H         1 <0>         0.3999
     61 H28         0.9392   -6.9078    2.2559 H         1 <0>         0.4260
@<TRIPOS>BOND
     1    1    2 1
     2    1   34 1
     3    1   35 1
     4    1   36 1
     5    2    7 ar
     6    2    3 ar
     7    3    4 ar
     8    3   37 1
     9    4    5 ar
    10    4   38 1
    11    5    6 ar
    12    5   33 1
    13    6    7 ar
    14    6   39 1
    15    7    8 1
    16    8    9 1
    17    8   40 1
    18    9   14 ar
    19    9   10 ar
    20   10   11 ar
    21   10   41 1
    22   11   12 ar
    23   11   24 1
    24   12   13 ar
    25   13   14 ar
    26   13   15 1
    27   15   19 1
    28   15   16 1
    29   16   17 2
    30   16   42 1
    31   17   18 1
    32   18   23 ar
    33   18   19 ar
    34   19   20 ar
    35   20   21 ar
    36   20   43 1
    37   21   22 ar
    38   21   44 1
    39   22   23 ar
    40   22   45 1
    41   23   46 1
    42   24   25 1
    43   24   47 1
    44   25   26 1
    45   25   48 1
    46   25   49 1
    47   26   27 1
    48   26   50 1
    49   26   51 1
    50   27   32 1
    51   27   28 1
    52   27   61 1
    53   28   29 1
    54   28   52 1
    55   28   53 1
    56   29   30 1
    57   29   54 1
    58   29   55 1
    59   30   31 1
    60   31   32 1
    61   31   56 1
    62   31   57 1
    63   32   58 1
    64   32   59 1
    65   33   60 1
@<TRIPOS>MOLECULE
CHEMBL583850
   66    71     0     0     0
SMALL
USER_CHARGES

@<TRIPOS>ATOM
      1 C1          0.3469   -0.1623    0.5493 C.3       1 <0>        -0.1695
      2 C2          0.9713   -1.5056    0.1666 C.3       1 <0>         0.1675
      3 C3          1.5252   -1.4234   -1.2572 C.3       1 <0>        -0.1122
      4 C4          2.6733   -0.4125   -1.3012 C.3       1 <0>        -0.1121
      5 C5          3.2495   -0.3536   -2.7177 C.3       1 <0>        -0.1351
      6 C6          2.1596    0.1101   -3.6892 C.3       1 <0>         0.1077
      7 N1          0.9937   -0.7728   -3.5482 N.am      1 <0>        -0.6234
      8 C7          0.4157   -0.9719   -2.2122 C.3       1 <0>         0.1283
      9 C8          0.4641   -1.3881   -4.6241 C.2       1 <0>         0.7078
     10 O1         -0.4375   -2.1915   -4.4825 O.2       1 <0>        -0.5671
     11 N2          0.9340   -1.1128   -5.8569 N.am      1 <0>        -0.6874
     12 C9          0.2896   -1.6345   -6.9837 C.ar      1 <0>         0.1774
     13 C10        -1.1016   -1.7907   -6.9758 C.ar      1 <0>        -0.1122
     14 C11        -1.7540   -2.2948   -8.0563 C.ar      1 <0>        -0.0858
     15 C12        -1.0291   -2.6672   -9.2019 C.ar      1 <0>        -0.0654
     16 C13        -1.6770   -3.1907  -10.3338 C.ar      1 <0>        -0.0992
     17 C14        -0.9460   -3.5412  -11.4271 C.ar      1 <0>        -0.1234
     18 C15         0.4393   -3.3896  -11.4432 C.ar      1 <0>        -0.1107
     19 C16         1.1012   -2.8862  -10.3659 C.ar      1 <0>        -0.1124
     20 C17         0.3798   -2.5125   -9.2185 C.ar      1 <0>        -0.0289
     21 C18         1.0295   -1.9839   -8.0911 C.ar      1 <0>        -0.1469
     22 N3         -0.0486   -2.5551    0.2341 N.pl3     1 <0>        -0.6898
     23 C19        -0.3232   -3.1768    1.4397 C.ar      1 <0>         0.6016
     24 N4          0.3423   -2.8062    2.5240 N.ar      1 <0>        -0.5747
     25 C20         0.1066   -3.3777    3.6950 C.ar      1 <0>         0.2224
     26 C21        -0.8482   -4.3742    3.7810 C.ar      1 <0>        -0.3085
     27 C22        -1.5318   -4.7423    2.6227 C.ar      1 <0>         0.4504
     28 N5         -1.2483   -4.1234    1.4821 N.ar      1 <0>        -0.5917
     29 N6         -2.5018   -5.7419    2.6622 N.pl3     1 <0>        -0.4406
     30 C23        -2.8947   -6.4457    3.7630 C.2       1 <0>         0.2743
     31 N7         -3.8206   -7.2995    3.4394 N.2       1 <0>        -0.4710
     32 C24        -4.0876   -7.2052    2.1107 C.ar      1 <0>         0.0423
     33 C25        -3.2508   -6.2020    1.5935 C.ar      1 <0>         0.0569
     34 C26        -3.3080   -5.8789    0.2459 C.ar      1 <0>        -0.0891
     35 C27        -4.1895   -6.5422   -0.5818 C.ar      1 <0>        -0.1024
     36 C28        -5.0204   -7.5310   -0.0756 C.ar      1 <0>        -0.1194
     37 C29        -4.9716   -7.8703    1.2576 C.ar      1 <0>        -0.0667
     38 H1          1.1057    0.6186    0.4991 H         1 <0>         0.0718
     39 H2         -0.4623    0.0724   -0.1423 H         1 <0>         0.0596
     40 H3         -0.0477   -0.2209    1.5637 H         1 <0>         0.0639
     41 H4          1.7804   -1.7403    0.8582 H         1 <0>         0.0997
     42 H5          1.8911   -2.4038   -1.5624 H         1 <0>         0.0838
     43 H6          2.3009    0.5724   -1.0194 H         1 <0>         0.0743
     44 H7          3.4535   -0.7185   -0.6042 H         1 <0>         0.0739
     45 H8          4.0823    0.3492   -2.7428 H         1 <0>         0.0827
     46 H9          3.5997   -1.3438   -3.0094 H         1 <0>         0.0694
     47 H10         1.8724    1.1349   -3.4540 H         1 <0>         0.0766
     48 H11         2.5352    0.0590   -4.7112 H         1 <0>         0.0763
     49 H12        -0.3594   -1.7368   -2.2596 H         1 <0>         0.0927
     50 H13        -0.0137   -0.0352   -1.8565 H         1 <0>         0.0779
     51 H14         1.7190   -0.5530   -5.9630 H         1 <0>         0.4060
     52 H15        -1.6643   -1.5068   -6.0988 H         1 <0>         0.1351
     53 H16        -2.8277   -2.4096   -8.0348 H         1 <0>         0.1314
     54 H17        -2.7498   -3.3146  -10.3360 H         1 <0>         0.1271
     55 H18        -1.4471   -3.9432  -12.2953 H         1 <0>         0.1229
     56 H19         0.9958   -3.6762  -12.3233 H         1 <0>         0.1230
     57 H20         2.1751   -2.7746  -10.3922 H         1 <0>         0.1259
     58 H21         2.1020   -1.8561   -8.0913 H         1 <0>         0.1290
     59 H22        -0.5314   -2.8144   -0.5663 H         1 <0>         0.4144
     60 H23         0.6543   -3.0692    4.5732 H         1 <0>         0.1789
     61 H24        -1.0594   -4.8567    4.7238 H         1 <0>         0.1508
     62 H25        -2.4950   -6.3132    4.7576 H         1 <0>         0.2230
     63 H26        -2.6643   -5.1095   -0.1542 H         1 <0>         0.1385
     64 H27        -4.2334   -6.2899   -1.6310 H         1 <0>         0.1335
     65 H28        -5.7067   -8.0429   -0.7339 H         1 <0>         0.1335
     66 H29        -5.6222   -8.6404    1.6450 H         1 <0>         0.1335
@<TRIPOS>BOND
     1    1    2 1
     2    1   38 1
     3    1   39 1
     4    1   40 1
     5    2    3 1
     6    2   22 1
     7    2   41 1
     8    3    8 1
     9    3    4 1
    10    3   42 1
    11    4    5 1
    12    4   43 1
    13    4   44 1
    14    5    6 1
    15    5   45 1
    16    5   46 1
    17    6    7 1
    18    6   47 1
    19    6   48 1
    20    7    8 1
    21    7    9 am
    22    8   49 1
    23    8   50 1
    24    9   10 2
    25    9   11 am
    26   11   12 1
    27   11   51 1
    28   12   21 ar
    29   12   13 ar
    30   13   14 ar
    31   13   52 1
    32   14   15 ar
    33   14   53 1
    34   15   20 ar
    35   15   16 ar
    36   16   17 ar
    37   16   54 1
    38   17   18 ar
    39   17   55 1
    40   18   19 ar
    41   18   56 1
    42   19   20 ar
    43   19   57 1
    44   20   21 ar
    45   21   58 1
    46   22   23 1
    47   22   59 1
    48   23   28 ar
    49   23   24 ar
    50   24   25 ar
    51   25   26 ar
    52   25   60 1
    53   26   27 ar
    54   26   61 1
    55   27   28 ar
    56   27   29 1
    57   29   33 1
    58   29   30 1
    59   30   31 2
    60   30   62 1
    61   31   32 1
    62   32   37 ar
    63   32   33 ar
    64   33   34 ar
    65   34   35 ar
    66   34   63 1
    67   35   36 ar
    68   35   64 1
    69   36   37 ar
    70   36   65 1
    71   37   66 1
@<TRIPOS>MOLECULE
CHEMBL583850__1
   66    71     0     0     0
SMALL
USER_CHARGES

@<TRIPOS>ATOM
      1 C1         -0.1566   -0.2272    1.4521 C.3       1 <0>        -0.1641
      2 C2          0.3889   -1.6027    1.0633 C.3       1 <0>         0.1670
      3 C3          0.7692   -1.6002   -0.4187 C.3       1 <0>        -0.1114
      4 C4          1.8443   -0.5400   -0.6683 C.3       1 <0>        -0.1130
      5 C5          2.2019   -0.5141   -2.1561 C.3       1 <0>        -0.1344
      6 C6          2.7644   -1.8788   -2.5659 C.3       1 <0>         0.1068
      7 N1          1.7957   -2.9199   -2.1961 N.am      1 <0>        -0.6238
      8 C7          1.3154   -2.9773   -0.8087 C.3       1 <0>         0.1354
      9 C8          1.3558   -3.8051   -3.1122 C.2       1 <0>         0.7076
     10 O1          0.6130   -4.7077   -2.7777 O.2       1 <0>        -0.5664
     11 N2          1.7392   -3.6897   -4.3992 N.am      1 <0>        -0.6877
     12 C9          1.1696   -4.5143   -5.3753 C.ar      1 <0>         0.1775
     13 C10        -0.1709   -4.9009   -5.2594 C.ar      1 <0>        -0.1120
     14 C11        -0.7502   -5.7012   -6.1928 C.ar      1 <0>        -0.0859
     15 C12         0.0003   -6.1516   -7.2930 C.ar      1 <0>        -0.0655
     16 C13        -0.5724   -6.9794   -8.2737 C.ar      1 <0>        -0.0992
     17 C14         0.1814   -7.3978   -9.3268 C.ar      1 <0>        -0.1234
     18 C15         1.5168   -7.0182   -9.4495 C.ar      1 <0>        -0.1107
     19 C16         2.1054   -6.2176   -8.5198 C.ar      1 <0>        -0.1124
     20 C17         1.3583   -5.7650   -7.4181 C.ar      1 <0>        -0.0289
     21 C18         1.9318   -4.9327   -6.4430 C.ar      1 <0>        -0.1470
     22 N3         -0.6375   -2.6204    1.3023 N.pl3     1 <0>        -0.6893
     23 C19        -0.7783   -3.1790    2.5607 C.ar      1 <0>         0.6021
     24 N4          0.0203   -2.7775    3.5388 N.ar      1 <0>        -0.5747
     25 C20        -0.0850   -3.2887    4.7558 C.ar      1 <0>         0.2224
     26 C21        -1.0433   -4.2543    5.0029 C.ar      1 <0>        -0.3083
     27 C22        -1.8688   -4.6563    3.9534 C.ar      1 <0>         0.4505
     28 N5         -1.7114   -4.0977    2.7586 N.ar      1 <0>        -0.5912
     29 N6         -2.8479   -5.6267    4.1564 N.pl3     1 <0>        -0.4405
     30 C23        -3.1205   -6.2689    5.3288 C.2       1 <0>         0.2745
     31 N7         -4.0964   -7.1116    5.1594 N.2       1 <0>        -0.4711
     32 C24        -4.5191   -7.0706    3.8689 C.ar      1 <0>         0.0424
     33 C25        -3.7294   -6.1147    3.2078 C.ar      1 <0>         0.0571
     34 C26        -3.9414   -5.8518    1.8626 C.ar      1 <0>        -0.0886
     35 C27        -4.9297   -6.5282    1.1788 C.ar      1 <0>        -0.1027
     36 C28        -5.7145   -7.4704    1.8275 C.ar      1 <0>        -0.1195
     37 C29        -5.5130   -7.7499    3.1603 C.ar      1 <0>        -0.0667
     38 H1          0.6071    0.5300    1.2743 H         1 <0>         0.0717
     39 H2         -1.0378   -0.0026    0.8512 H         1 <0>         0.0561
     40 H3         -0.4276   -0.2290    2.5079 H         1 <0>         0.0636
     41 H4          1.2701   -1.8273    1.6642 H         1 <0>         0.0979
     42 H5         -0.1115   -1.3745   -1.0200 H         1 <0>         0.0827
     43 H6          1.4668    0.4376   -0.3685 H         1 <0>         0.0775
     44 H7          2.7334   -0.7801   -0.0853 H         1 <0>         0.0715
     45 H8          1.3080   -0.2984   -2.7414 H         1 <0>         0.0699
     46 H9          2.9506    0.2571   -2.3370 H         1 <0>         0.0823
     47 H10         2.9280   -1.8981   -3.6433 H         1 <0>         0.0763
     48 H11         3.7069   -2.0561   -2.0478 H         1 <0>         0.0760
     49 H12         2.1398   -3.2441   -0.1474 H         1 <0>         0.0690
     50 H13         0.5231   -3.7213   -0.7269 H         1 <0>         0.0956
     51 H14         2.4100   -3.0350   -4.6486 H         1 <0>         0.4060
     52 H15        -0.7528   -4.5586   -4.4164 H         1 <0>         0.1348
     53 H16        -1.7854   -5.9911   -6.0892 H         1 <0>         0.1313
     54 H17        -1.6058   -7.2825   -8.1918 H         1 <0>         0.1271
     55 H18        -0.2619   -8.0340  -10.0786 H         1 <0>         0.1229
     56 H19         2.0929   -7.3648  -10.2947 H         1 <0>         0.1230
     57 H20         3.1413   -5.9316   -8.6274 H         1 <0>         0.1260
     58 H21         2.9639   -4.6264   -6.5279 H         1 <0>         0.1291
     59 H22        -1.2184   -2.9027    0.5785 H         1 <0>         0.4143
     60 H23         0.5707   -2.9553    5.5466 H         1 <0>         0.1788
     61 H24        -1.1499   -4.6877    5.9864 H         1 <0>         0.1507
     62 H25        -2.6015   -6.1022    6.2611 H         1 <0>         0.2229
     63 H26        -3.3342   -5.1189    1.3520 H         1 <0>         0.1384
     64 H27        -5.0940   -6.3228    0.1313 H         1 <0>         0.1330
     65 H28        -6.4856   -7.9932    1.2811 H         1 <0>         0.1333
     66 H29        -6.1285   -8.4839    3.6591 H         1 <0>         0.1335
@<TRIPOS>BOND
     1    1    2 1
     2    1   38 1
     3    1   39 1
     4    1   40 1
     5    2    3 1
     6    2   22 1
     7    2   41 1
     8    3    8 1
     9    3    4 1
    10    3   42 1
    11    4    5 1
    12    4   43 1
    13    4   44 1
    14    5    6 1
    15    5   45 1
    16    5   46 1
    17    6    7 1
    18    6   47 1
    19    6   48 1
    20    7    8 1
    21    7    9 am
    22    8   49 1
    23    8   50 1
    24    9   10 2
    25    9   11 am
    26   11   12 1
    27   11   51 1
    28   12   21 ar
    29   12   13 ar
    30   13   14 ar
    31   13   52 1
    32   14   15 ar
    33   14   53 1
    34   15   20 ar
    35   15   16 ar
    36   16   17 ar
    37   16   54 1
    38   17   18 ar
    39   17   55 1
    40   18   19 ar
    41   18   56 1
    42   19   20 ar
    43   19   57 1
    44   20   21 ar
    45   21   58 1
    46   22   23 1
    47   22   59 1
    48   23   28 ar
    49   23   24 ar
    50   24   25 ar
    51   25   26 ar
    52   25   60 1
    53   26   27 ar
    54   26   61 1
    55   27   28 ar
    56   27   29 1
    57   29   33 1
    58   29   30 1
    59   30   31 2
    60   30   62 1
    61   31   32 1
    62   32   37 ar
    63   32   33 ar
    64   33   34 ar
    65   34   35 ar
    66   34   63 1
    67   35   36 ar
    68   35   64 1
    69   36   37 ar
    70   36   65 1
    71   37   66 1
@<TRIPOS>MOLECULE
CHEMBL583850__2
   66    71     0     0     0
SMALL
USER_CHARGES

@<TRIPOS>ATOM
      1 C1         -1.6714    2.5567   -0.1433 C.3       1 <0>        -0.1642
      2 C2         -1.2768    1.1327   -0.5398 C.3       1 <0>         0.1669
      3 C3         -2.4167    0.1726   -0.1939 C.3       1 <0>        -0.1116
      4 C4         -2.6876    0.2225    1.3116 C.3       1 <0>        -0.1129
      5 C5         -3.8494   -0.7130    1.6539 C.3       1 <0>        -0.1346
      6 C6         -3.4712   -2.1491    1.2781 C.3       1 <0>         0.1072
      7 N1         -3.0694   -2.1780   -0.1349 N.am      1 <0>        -0.6240
      8 C7         -2.0222   -1.2535   -0.5906 C.3       1 <0>         0.1350
      9 C8         -3.6500   -3.0364   -0.9965 C.2       1 <0>         0.7078
     10 O1         -3.3803   -2.9845   -2.1809 O.2       1 <0>        -0.5665
     11 N2         -4.5296   -3.9524   -0.5452 N.am      1 <0>        -0.6877
     12 C9         -5.0185   -4.9379   -1.4094 C.ar      1 <0>         0.1778
     13 C10        -4.1870   -5.4575   -2.4086 C.ar      1 <0>        -0.1122
     14 C11        -4.6354   -6.4156   -3.2622 C.ar      1 <0>        -0.0858
     15 C12        -5.9513   -6.8969   -3.1467 C.ar      1 <0>        -0.0654
     16 C13        -6.4419   -7.8873   -4.0147 C.ar      1 <0>        -0.0991
     17 C14        -7.7207   -8.3320   -3.8760 C.ar      1 <0>        -0.1234
     18 C15        -8.5553   -7.8197   -2.8844 C.ar      1 <0>        -0.1107
     19 C16        -8.1153   -6.8601   -2.0257 C.ar      1 <0>        -0.1124
     20 C17        -6.8001   -6.3762   -2.1378 C.ar      1 <0>        -0.0289
     21 C18        -6.3108   -5.3908   -1.2649 C.ar      1 <0>        -0.1469
     22 N3         -1.0154    1.0815   -1.9804 N.pl3     1 <0>        -0.6891
     23 C19         0.2337    1.4218   -2.4695 C.ar      1 <0>         0.6021
     24 N4          1.1830    1.7863   -1.6199 N.ar      1 <0>        -0.5749
     25 C20         2.3902    2.1184   -2.0507 C.ar      1 <0>         0.2224
     26 C21         2.6578    2.0823   -3.4068 C.ar      1 <0>        -0.3086
     27 C22         1.6386    1.6947   -4.2759 C.ar      1 <0>         0.4505
     28 N5          0.4522    1.3699   -3.7747 N.ar      1 <0>        -0.5912
     29 N6          1.8630    1.6443   -5.6502 N.pl3     1 <0>        -0.4406
     30 C23         3.0304    1.9402   -6.2913 C.2       1 <0>         0.2744
     31 N7          2.8859    1.7863   -7.5745 N.2       1 <0>        -0.4711
     32 C24         1.6183    1.3815   -7.8483 C.ar      1 <0>         0.0424
     33 C25         0.9450    1.2791   -6.6192 C.ar      1 <0>         0.0571
     34 C26        -0.3816    0.8758   -6.5877 C.ar      1 <0>        -0.0886
     35 C27        -1.0350    0.5735   -7.7640 C.ar      1 <0>        -0.1026
     36 C28        -0.3739    0.6696   -8.9799 C.ar      1 <0>        -0.1194
     37 C29         0.9404    1.0759   -9.0308 C.ar      1 <0>        -0.0668
     38 H1         -0.8593    3.2407   -0.3897 H         1 <0>         0.0634
     39 H2         -2.5702    2.8492   -0.6862 H         1 <0>         0.0562
     40 H3         -1.8659    2.5948    0.9286 H         1 <0>         0.0717
     41 H4         -0.3780    0.8402    0.0032 H         1 <0>         0.0980
     42 H5         -3.3160    0.4653   -0.7357 H         1 <0>         0.0829
     43 H6         -1.7953   -0.0939    1.8517 H         1 <0>         0.0715
     44 H7         -2.9446    1.2416    1.6007 H         1 <0>         0.0774
     45 H8         -4.0570   -0.6592    2.7226 H         1 <0>         0.0825
     46 H9         -4.7356   -0.4120    1.0951 H         1 <0>         0.0697
     47 H10        -2.6413   -2.4833    1.9008 H         1 <0>         0.0760
     48 H11        -4.3296   -2.8040    1.4273 H         1 <0>         0.0761
     49 H12        -1.9247   -1.3176   -1.6744 H         1 <0>         0.0960
     50 H13        -1.0743   -1.5147   -0.1202 H         1 <0>         0.0694
     51 H14        -4.8237   -3.9284    0.3788 H         1 <0>         0.4059
     52 H15        -3.1752   -5.0918   -2.5028 H         1 <0>         0.1346
     53 H16        -3.9819   -6.8062   -4.0281 H         1 <0>         0.1312
     54 H17        -5.8071   -8.2933   -4.7884 H         1 <0>         0.1270
     55 H18        -8.0944   -9.0932   -4.5448 H         1 <0>         0.1229
     56 H19        -9.5662   -8.1895   -2.7964 H         1 <0>         0.1230
     57 H20        -8.7732   -6.4719   -1.2622 H         1 <0>         0.1260
     58 H21        -6.9447   -4.9884   -0.4885 H         1 <0>         0.1291
     59 H22        -1.7178    0.8091   -2.5914 H         1 <0>         0.4148
     60 H23         3.1574    2.4146   -1.3506 H         1 <0>         0.1787
     61 H24         3.6340    2.3487   -3.7843 H         1 <0>         0.1506
     62 H25         3.9411    2.2563   -5.8044 H         1 <0>         0.2229
     63 H26        -0.9016    0.7983   -5.6443 H         1 <0>         0.1385
     64 H27        -2.0680    0.2596   -7.7385 H         1 <0>         0.1331
     65 H28        -0.8964    0.4299   -9.8942 H         1 <0>         0.1334
     66 H29         1.4490    1.1474   -9.9809 H         1 <0>         0.1335
@<TRIPOS>BOND
     1    1    2 1
     2    1   38 1
     3    1   39 1
     4    1   40 1
     5    2    3 1
     6    2   22 1
     7    2   41 1
     8    3    8 1
     9    3    4 1
    10    3   42 1
    11    4    5 1
    12    4   43 1
    13    4   44 1
    14    5    6 1
    15    5   45 1
    16    5   46 1
    17    6    7 1
    18    6   47 1
    19    6   48 1
    20    7    8 1
    21    7    9 am
    22    8   49 1
    23    8   50 1
    24    9   10 2
    25    9   11 am
    26   11   12 1
    27   11   51 1
    28   12   21 ar
    29   12   13 ar
    30   13   14 ar
    31   13   52 1
    32   14   15 ar
    33   14   53 1
    34   15   20 ar
    35   15   16 ar
    36   16   17 ar
    37   16   54 1
    38   17   18 ar
    39   17   55 1
    40   18   19 ar
    41   18   56 1
    42   19   20 ar
    43   19   57 1
    44   20   21 ar
    45   21   58 1
    46   22   23 1
    47   22   59 1
    48   23   28 ar
    49   23   24 ar
    50   24   25 ar
    51   25   26 ar
    52   25   60 1
    53   26   27 ar
    54   26   61 1
    55   27   28 ar
    56   27   29 1
    57   29   33 1
    58   29   30 1
    59   30   31 2
    60   30   62 1
    61   31   32 1
    62   32   37 ar
    63   32   33 ar
    64   33   34 ar
    65   34   35 ar
    66   34   63 1
    67   35   36 ar
    68   35   64 1
    69   36   37 ar
    70   36   65 1
    71   37   66 1
@<TRIPOS>MOLECULE
CHEMBL583850__3
   66    71     0     0     0
SMALL
USER_CHARGES

@<TRIPOS>ATOM
      1 C1         -0.8901    2.9499   -0.6337 C.3       1 <0>        -0.1696
      2 C2         -0.3997    1.5728   -1.0855 C.3       1 <0>         0.1674
      3 C3         -1.5052    0.5391   -0.8616 C.3       1 <0>        -0.1117
      4 C4         -1.8677    0.4926    0.6246 C.3       1 <0>        -0.1128
      5 C5         -2.9503   -0.5644    0.8545 C.3       1 <0>        -0.1350
      6 C6         -4.2054   -0.1848    0.0624 C.3       1 <0>         0.1073
      7 N1         -3.8360    0.0039   -1.3471 N.am      1 <0>        -0.6230
      8 C7         -2.7439    0.9312   -1.6731 C.3       1 <0>         0.1293
      9 C8         -4.4862   -0.6614   -2.3223 C.2       1 <0>         0.7078
     10 O1         -4.2228   -0.4405   -3.4886 O.2       1 <0>        -0.5670
     11 N2         -5.4282   -1.5714   -2.0048 N.am      1 <0>        -0.6874
     12 C9         -5.9977   -2.3668   -3.0049 C.ar      1 <0>         0.1774
     13 C10        -5.2171   -2.7767   -4.0923 C.ar      1 <0>        -0.1121
     14 C11        -5.7440   -3.5497   -5.0783 C.ar      1 <0>        -0.0859
     15 C12        -7.0909   -3.9476   -5.0128 C.ar      1 <0>        -0.0653
     16 C13        -7.6623   -4.7471   -6.0174 C.ar      1 <0>        -0.0992
     17 C14        -8.9692   -5.1154   -5.9239 C.ar      1 <0>        -0.1234
     18 C15        -9.7536   -4.7112   -4.8451 C.ar      1 <0>        -0.1107
     19 C16        -9.2348   -3.9368   -3.8535 C.ar      1 <0>        -0.1123
     20 C17        -7.8884   -3.5370   -3.9153 C.ar      1 <0>        -0.0289
     21 C18        -7.3186   -2.7430   -2.9066 C.ar      1 <0>        -0.1467
     22 N3         -0.0559    1.6196   -2.5088 N.pl3     1 <0>        -0.6902
     23 C19         1.1990    2.0492   -2.9038 C.ar      1 <0>         0.6015
     24 N4          2.0788    2.4093   -1.9807 N.ar      1 <0>        -0.5747
     25 C20         3.2892    2.8252   -2.3205 C.ar      1 <0>         0.2225
     26 C21         3.6336    2.8823   -3.6584 C.ar      1 <0>        -0.3084
     27 C22         2.6864    2.4969   -4.6063 C.ar      1 <0>         0.4505
     28 N5          1.4925    2.0851   -4.1947 N.ar      1 <0>        -0.5918
     29 N6          2.9895    2.5388   -5.9657 N.pl3     1 <0>        -0.4406
     30 C23         4.1738    2.9290   -6.5194 C.2       1 <0>         0.2743
     31 N7          4.1096    2.8441   -7.8155 N.2       1 <0>        -0.4709
     32 C24         2.8822    2.3943   -8.1856 C.ar      1 <0>         0.0423
     33 C25         2.1476    2.1866   -7.0059 C.ar      1 <0>         0.0569
     34 C26         0.8443    1.7173   -7.0751 C.ar      1 <0>        -0.0891
     35 C27         0.2745    1.4532   -8.3030 C.ar      1 <0>        -0.1023
     36 C28         0.9964    1.6533   -9.4705 C.ar      1 <0>        -0.1194
     37 C29         2.2884    2.1260   -9.4213 C.ar      1 <0>        -0.0667
     38 H1         -0.1025    3.6863   -0.7932 H         1 <0>         0.0636
     39 H2         -1.7712    3.2293   -1.2113 H         1 <0>         0.0591
     40 H3         -1.1459    2.9151    0.4253 H         1 <0>         0.0725
     41 H4          0.4814    1.2934   -0.5079 H         1 <0>         0.1000
     42 H5         -1.1559   -0.4424   -1.1822 H         1 <0>         0.0834
     43 H6         -0.9820    0.2378    1.2066 H         1 <0>         0.0742
     44 H7         -2.2399    1.4678    0.9383 H         1 <0>         0.0750
     45 H8         -2.5877   -1.5357    0.5181 H         1 <0>         0.0696
     46 H9         -3.1912   -0.6134    1.9164 H         1 <0>         0.0826
     47 H10        -4.9436   -0.9827    0.1430 H         1 <0>         0.0766
     48 H11        -4.6210    0.7418    0.4584 H         1 <0>         0.0766
     49 H12        -3.0404    1.9488   -1.4187 H         1 <0>         0.0767
     50 H13        -2.5179    0.8697   -2.7376 H         1 <0>         0.0920
     51 H14        -5.7114   -1.6748   -1.0829 H         1 <0>         0.4061
     52 H15        -4.1819   -2.4741   -4.1488 H         1 <0>         0.1348
     53 H16        -5.1290   -3.8576   -5.9111 H         1 <0>         0.1312
     54 H17        -7.0673   -5.0675   -6.8598 H         1 <0>         0.1271
     55 H18        -9.4052   -5.7299   -6.6977 H         1 <0>         0.1229
     56 H19       -10.7882   -5.0168   -4.7954 H         1 <0>         0.1231
     57 H20        -9.8544   -3.6307   -3.0235 H         1 <0>         0.1260
     58 H21        -7.9130   -2.4267   -2.0622 H         1 <0>         0.1292
     59 H22        -0.7079    1.3495   -3.1743 H         1 <0>         0.4140
     60 H23         3.9994    3.1169   -1.5609 H         1 <0>         0.1790
     61 H24         4.6141    3.2181   -3.9623 H         1 <0>         0.1508
     62 H25         5.0380    3.2602   -5.9628 H         1 <0>         0.2229
     63 H26         0.2772    1.5589   -6.1698 H         1 <0>         0.1384
     64 H27        -0.7405    1.0879   -8.3558 H         1 <0>         0.1335
     65 H28         0.5392    1.4424  -10.4260 H         1 <0>         0.1335
     66 H29         2.8448    2.2783  -10.3343 H         1 <0>         0.1335
@<TRIPOS>BOND
     1    1    2 1
     2    1   38 1
     3    1   39 1
     4    1   40 1
     5    2    3 1
     6    2   22 1
     7    2   41 1
     8    3    8 1
     9    3    4 1
    10    3   42 1
    11    4    5 1
    12    4   43 1
    13    4   44 1
    14    5    6 1
    15    5   45 1
    16    5   46 1
    17    6    7 1
    18    6   47 1
    19    6   48 1
    20    7    8 1
    21    7    9 am
    22    8   49 1
    23    8   50 1
    24    9   10 2
    25    9   11 am
    26   11   12 1
    27   11   51 1
    28   12   21 ar
    29   12   13 ar
    30   13   14 ar
    31   13   52 1
    32   14   15 ar
    33   14   53 1
    34   15   20 ar
    35   15   16 ar
    36   16   17 ar
    37   16   54 1
    38   17   18 ar
    39   17   55 1
    40   18   19 ar
    41   18   56 1
    42   19   20 ar
    43   19   57 1
    44   20   21 ar
    45   21   58 1
    46   22   23 1
    47   22   59 1
    48   23   28 ar
    49   23   24 ar
    50   24   25 ar
    51   25   26 ar
    52   25   60 1
    53   26   27 ar
    54   26   61 1
    55   27   28 ar
    56   27   29 1
    57   29   33 1
    58   29   30 1
    59   30   31 2
    60   30   62 1
    61   31   32 1
    62   32   37 ar
    63   32   33 ar
    64   33   34 ar
    65   34   35 ar
    66   34   63 1
    67   35   36 ar
    68   35   64 1
    69   36   37 ar
    70   36   65 1
    71   37   66 1
@<TRIPOS>MOLECULE
CHEMBL584044
   53    56     0     0     0
SMALL
USER_CHARGES

@<TRIPOS>ATOM
      1 C1         -0.0223    1.5342    0.0131 C.3       1 <0>        -0.1694
      2 C2          0.0032    0.0044    0.0078 C.3       1 <0>         0.1672
      3 C3         -1.4306   -0.5296    0.0171 C.3       1 <0>        -0.1120
      4 C4         -2.1334   -0.1288   -1.2819 C.3       1 <0>        -0.1118
      5 C5         -3.5570   -0.6904   -1.2880 C.3       1 <0>        -0.1350
      6 C6         -4.3402   -0.0983   -0.1121 C.3       1 <0>         0.1102
      7 N1         -3.5959   -0.3542    1.1286 N.am      1 <0>        -0.6290
      8 C7         -2.1897    0.0643    1.2079 C.3       1 <0>         0.1292
      9 C8         -4.1917   -0.9610    2.1742 C.2       1 <0>         0.7055
     10 O1         -3.5413   -1.2529    3.1591 O.2       1 <0>        -0.5865
     11 N2         -5.5086   -1.2441    2.1280 N.am      1 <0>        -0.7513
     12 C9         -6.1793   -1.8034    3.3043 C.3       1 <0>         0.1046
     13 N3          0.7110   -0.4763    1.1970 N.pl3     1 <0>        -0.6893
     14 C10         2.0906   -0.5854    1.1842 C.ar      1 <0>         0.6017
     15 N4          2.7555   -0.2456    0.0895 N.ar      1 <0>        -0.5747
     16 C11         4.0756   -0.3362    0.0401 C.ar      1 <0>         0.2224
     17 C12         4.7640   -0.7923    1.1491 C.ar      1 <0>        -0.3089
     18 C13         4.0366   -1.1422    2.2862 C.ar      1 <0>         0.4503
     19 N5          2.7139   -1.0218    2.2682 N.ar      1 <0>        -0.5920
     20 N6          4.6884   -1.6071    3.4266 N.pl3     1 <0>        -0.4406
     21 C14         6.0344   -1.7675    3.5811 C.2       1 <0>         0.2743
     22 N7          6.2959   -2.2200    4.7719 N.2       1 <0>        -0.4713
     23 C15         5.1390   -2.3821    5.4654 C.ar      1 <0>         0.0422
     24 C16         4.0918   -1.9868    4.6161 C.ar      1 <0>         0.0569
     25 C17         2.7799   -2.0401    5.0630 C.ar      1 <0>        -0.0891
     26 C18         2.5080   -2.4787    6.3420 C.ar      1 <0>        -0.1025
     27 C19         3.5385   -2.8668    7.1857 C.ar      1 <0>        -0.1195
     28 C20         4.8459   -2.8280    6.7564 C.ar      1 <0>        -0.0669
     29 H1          0.9991    1.9146    0.0064 H         1 <0>         0.0634
     30 H2         -0.5490    1.8918   -0.8717 H         1 <0>         0.0716
     31 H3         -0.5353    1.8860    0.9082 H         1 <0>         0.0598
     32 H4          0.5161   -0.3474   -0.8873 H         1 <0>         0.0992
     33 H5         -1.4136   -1.6162    0.1018 H         1 <0>         0.0830
     34 H6         -2.1715    0.9582   -1.3538 H         1 <0>         0.0736
     35 H7         -1.5813   -0.5296   -2.1321 H         1 <0>         0.0728
     36 H8         -4.0490   -0.4244   -2.2236 H         1 <0>         0.0810
     37 H9         -3.5205   -1.7755   -1.1913 H         1 <0>         0.0685
     38 H10        -4.4556    0.9762   -0.2539 H         1 <0>         0.0727
     39 H11        -5.3217   -0.5687   -0.0529 H         1 <0>         0.0770
     40 H12        -1.7523   -0.2988    2.1379 H         1 <0>         0.0909
     41 H13        -2.1297    1.1521    1.1737 H         1 <0>         0.0749
     42 H14        -6.0123   -1.0777    1.3159 H         1 <0>         0.3966
     43 H15        -7.2334   -1.9649    3.0790 H         1 <0>         0.0761
     44 H16        -5.7149   -2.7530    3.5701 H         1 <0>         0.0595
     45 H17        -6.0885   -1.1083    4.1390 H         1 <0>         0.0585
     46 H18         0.2127   -0.7180    1.9934 H         1 <0>         0.4146
     47 H19         4.6087   -0.0573   -0.8568 H         1 <0>         0.1788
     48 H20         5.8406   -0.8760    1.1349 H         1 <0>         0.1506
     49 H21         6.7745   -1.5507    2.8250 H         1 <0>         0.2230
     50 H22         1.9732   -1.7386    4.4112 H         1 <0>         0.1387
     51 H23         1.4862   -2.5199    6.6890 H         1 <0>         0.1336
     52 H24         3.3127   -3.2081    8.1852 H         1 <0>         0.1334
     53 H25         5.6430   -3.1307    7.4192 H         1 <0>         0.1334
@<TRIPOS>BOND
     1    1    2 1
     2    1   29 1
     3    1   30 1
     4    1   31 1
     5    2    3 1
     6    2   13 1
     7    2   32 1
     8    3    8 1
     9    3    4 1
    10    3   33 1
    11    4    5 1
    12    4   34 1
    13    4   35 1
    14    5    6 1
    15    5   36 1
    16    5   37 1
    17    6    7 1
    18    6   38 1
    19    6   39 1
    20    7    8 1
    21    7    9 am
    22    8   40 1
    23    8   41 1
    24    9   10 2
    25    9   11 am
    26   11   12 1
    27   11   42 1
    28   12   43 1
    29   12   44 1
    30   12   45 1
    31   13   14 1
    32   13   46 1
    33   14   19 ar
    34   14   15 ar
    35   15   16 ar
    36   16   17 ar
    37   16   47 1
    38   17   18 ar
    39   17   48 1
    40   18   19 ar
    41   18   20 1
    42   20   24 1
    43   20   21 1
    44   21   22 2
    45   21   49 1
    46   22   23 1
    47   23   28 ar
    48   23   24 ar
    49   24   25 ar
    50   25   26 ar
    51   25   50 1
    52   26   27 ar
    53   26   51 1
    54   27   28 ar
    55   27   52 1
    56   28   53 1
@<TRIPOS>MOLECULE
CHEMBL584044__1
   53    56     0     0     0
SMALL
USER_CHARGES

@<TRIPOS>ATOM
      1 C1         -0.0210    1.5281    0.0156 C.3       1 <0>        -0.1639
      2 C2          0.0005   -0.0018    0.0057 C.3       1 <0>         0.1668
      3 C3         -1.4346   -0.5320    0.0159 C.3       1 <0>        -0.1114
      4 C4         -2.1743   -0.0278   -1.2253 C.3       1 <0>        -0.1126
      5 C5         -3.6195   -0.5306   -1.1994 C.3       1 <0>        -0.1346
      6 C6         -3.6235   -2.0624   -1.2231 C.3       1 <0>         0.1096
      7 N1         -2.7933   -2.5546   -0.1153 N.am      1 <0>        -0.6295
      8 C7         -1.4138   -2.0638    0.0060 C.3       1 <0>         0.1363
      9 C8         -3.2880   -3.4394    0.7730 C.2       1 <0>         0.7053
     10 O1         -2.5650   -3.9089    1.6304 O.2       1 <0>        -0.5857
     11 N2         -4.5841   -3.8036    0.7109 N.am      1 <0>        -0.7516
     12 C9         -5.1494   -4.6780    1.7415 C.3       1 <0>         0.1047
     13 N3          0.7092   -0.4879    1.1921 N.pl3     1 <0>        -0.6887
     14 C10         2.0885   -0.6007    1.1764 C.ar      1 <0>         0.6022
     15 N4          2.7523   -0.2592    0.0816 N.ar      1 <0>        -0.5747
     16 C11         4.0721   -0.3531    0.0295 C.ar      1 <0>         0.2224
     17 C12         4.7613   -0.8144    1.1359 C.ar      1 <0>        -0.3087
     18 C13         4.0350   -1.1659    2.2731 C.ar      1 <0>         0.4504
     19 N5          2.7127   -1.0419    2.2579 N.ar      1 <0>        -0.5914
     20 N6          4.6877   -1.6361    3.4110 N.pl3     1 <0>        -0.4405
     21 C14         6.0336   -1.8004    3.5626 C.2       1 <0>         0.2746
     22 N7          6.2960   -2.2572    4.7515 N.2       1 <0>        -0.4714
     23 C15         5.1399   -2.4185    5.4466 C.ar      1 <0>         0.0424
     24 C16         4.0922   -2.0178    4.6004 C.ar      1 <0>         0.0572
     25 C17         2.7810   -2.0690    5.0495 C.ar      1 <0>        -0.0887
     26 C18         2.5103   -2.5108    6.3276 C.ar      1 <0>        -0.1028
     27 C19         3.5412   -2.9043    7.1683 C.ar      1 <0>        -0.1196
     28 C20         4.8479   -2.8676    6.7367 C.ar      1 <0>        -0.0669
     29 H1          1.0015    1.9058    0.0083 H         1 <0>         0.0633
     30 H2         -0.5483    1.8898   -0.8671 H         1 <0>         0.0716
     31 H3         -0.5314    1.8784    0.9127 H         1 <0>         0.0559
     32 H4          0.5109   -0.3521   -0.8914 H         1 <0>         0.0976
     33 H5         -1.9458   -0.1809    0.9123 H         1 <0>         0.0817
     34 H6         -2.1692    1.0622   -1.2334 H         1 <0>         0.0763
     35 H7         -1.6765   -0.3997   -2.1208 H         1 <0>         0.0708
     36 H8         -4.1107   -0.1796   -0.2918 H         1 <0>         0.0689
     37 H9         -4.1523   -0.1519   -2.0717 H         1 <0>         0.0806
     38 H10        -4.6439   -2.4270   -1.1051 H         1 <0>         0.0770
     39 H11        -3.2148   -2.4142   -2.1704 H         1 <0>         0.0723
     40 H12        -0.8250   -2.4157   -0.8411 H         1 <0>         0.0661
     41 H13        -0.9763   -2.4293    0.9349 H         1 <0>         0.0936
     42 H14        -5.1426   -3.4868   -0.0162 H         1 <0>         0.3964
     43 H15        -6.2019   -4.8614    1.5250 H         1 <0>         0.0760
     44 H16        -4.6099   -5.6250    1.7504 H         1 <0>         0.0596
     45 H17        -5.0572   -4.1980    2.7158 H         1 <0>         0.0581
     46 H18         0.2118   -0.7308    1.9886 H         1 <0>         0.4145
     47 H19         4.6043   -0.0728   -0.8675 H         1 <0>         0.1787
     48 H20         5.8377   -0.9009    1.1195 H         1 <0>         0.1506
     49 H21         6.7728   -1.5832    2.8058 H         1 <0>         0.2229
     50 H22         1.9739   -1.7634    4.4000 H         1 <0>         0.1386
     51 H23         1.4889   -2.5504    6.6764 H         1 <0>         0.1331
     52 H24         3.3164   -3.2480    8.1672 H         1 <0>         0.1333
     53 H25         5.6455   -3.1744    7.3971 H         1 <0>         0.1334
@<TRIPOS>BOND
     1    1    2 1
     2    1   29 1
     3    1   30 1
     4    1   31 1
     5    2    3 1
     6    2   13 1
     7    2   32 1
     8    3    8 1
     9    3    4 1
    10    3   33 1
    11    4    5 1
    12    4   34 1
    13    4   35 1
    14    5    6 1
    15    5   36 1
    16    5   37 1
    17    6    7 1
    18    6   38 1
    19    6   39 1
    20    7    8 1
    21    7    9 am
    22    8   40 1
    23    8   41 1
    24    9   10 2
    25    9   11 am
    26   11   12 1
    27   11   42 1
    28   12   43 1
    29   12   44 1
    30   12   45 1
    31   13   14 1
    32   13   46 1
    33   14   19 ar
    34   14   15 ar
    35   15   16 ar
    36   16   17 ar
    37   16   47 1
    38   17   18 ar
    39   17   48 1
    40   18   19 ar
    41   18   20 1
    42   20   24 1
    43   20   21 1
    44   21   22 2
    45   21   49 1
    46   22   23 1
    47   23   28 ar
    48   23   24 ar
    49   24   25 ar
    50   25   26 ar
    51   25   50 1
    52   26   27 ar
    53   26   51 1
    54   27   28 ar
    55   27   52 1
    56   28   53 1
@<TRIPOS>MOLECULE
CHEMBL584044__2
   53    56     0     0     0
SMALL
USER_CHARGES

@<TRIPOS>ATOM
      1 C1         -0.0239    1.5184    0.0011 C.3       1 <0>        -0.1640
      2 C2          0.0013   -0.0113   -0.0053 C.3       1 <0>         0.1666
      3 C3          0.7393   -0.5145    1.2369 C.3       1 <0>        -0.1113
      4 C4          2.1749    0.0157    1.2278 C.3       1 <0>        -0.1125
      5 C5          2.9042   -0.4600    2.4864 C.3       1 <0>        -0.1346
      6 C6          2.9542   -1.9911    2.4948 C.3       1 <0>         0.1097
      7 N1          1.5864   -2.5097    2.3575 N.am      1 <0>        -0.6295
      8 C7          0.7649   -2.0462    1.2311 C.3       1 <0>         0.1357
      9 C8          1.0949   -3.3942    3.2478 C.2       1 <0>         0.7054
     10 O1         -0.0677   -3.7435    3.1792 O.2       1 <0>        -0.5859
     11 N2          1.8920   -3.8915    4.2141 N.am      1 <0>        -0.7514
     12 C9          1.3902   -4.9333    5.1135 C.3       1 <0>         0.1047
     13 N3         -1.3717   -0.5223    0.0020 N.pl3     1 <0>        -0.6886
     14 C10        -2.0648   -0.6609   -1.1879 C.ar      1 <0>         0.6022
     15 N4         -1.4690   -0.3317   -2.3247 N.ar      1 <0>        -0.5748
     16 C11        -2.1002   -0.4512   -3.4827 C.ar      1 <0>         0.2224
     17 C12        -3.3985   -0.9265   -3.4991 C.ar      1 <0>        -0.3089
     18 C13        -3.9986   -1.2647   -2.2867 C.ar      1 <0>         0.4503
     19 N5         -3.3051   -1.1245   -1.1625 N.ar      1 <0>        -0.5914
     20 N6         -5.3054   -1.7473   -2.2553 N.pl3     1 <0>        -0.4404
     21 C14        -6.1202   -1.9480   -3.3310 C.2       1 <0>         0.2744
     22 N7         -7.2719   -2.4072   -2.9385 N.2       1 <0>        -0.4714
     23 C15        -7.2786   -2.5337   -1.5859 C.ar      1 <0>         0.0424
     24 C16        -6.0170   -2.1181   -1.1279 C.ar      1 <0>         0.0572
     25 C17        -5.7294   -2.1441    0.2287 C.ar      1 <0>        -0.0886
     26 C18        -6.6832   -2.5812    1.1239 C.ar      1 <0>        -0.1028
     27 C19        -7.9291   -2.9960    0.6767 C.ar      1 <0>        -0.1196
     28 C20        -8.2347   -2.9694   -0.6653 C.ar      1 <0>        -0.0670
     29 H1          0.9977    1.8986   -0.0043 H         1 <0>         0.0716
     30 H2         -0.5497    1.8769   -0.8838 H         1 <0>         0.0630
     31 H3         -0.5375    1.8696    0.8961 H         1 <0>         0.0561
     32 H4          0.5149   -0.3625   -0.9002 H         1 <0>         0.0976
     33 H5          0.2267   -0.1626    2.1321 H         1 <0>         0.0821
     34 H6          2.6940   -0.3568    0.3447 H         1 <0>         0.0707
     35 H7          2.1595    1.1054    1.2071 H         1 <0>         0.0763
     36 H8          3.9192   -0.0628    2.4908 H         1 <0>         0.0808
     37 H9          2.3716   -0.1086    3.3702 H         1 <0>         0.0688
     38 H10         3.5632   -2.3413    1.6614 H         1 <0>         0.0720
     39 H11         3.3838   -2.3375    3.4348 H         1 <0>         0.0769
     40 H12        -0.2502   -2.4290    1.3373 H         1 <0>         0.0943
     41 H13         1.1952   -2.4009    0.2946 H         1 <0>         0.0662
     42 H14         2.7980   -3.5596    4.3139 H         1 <0>         0.3964
     43 H15         2.1708   -5.2076    5.8231 H         1 <0>         0.0761
     44 H16         0.5221   -4.5581    5.6555 H         1 <0>         0.0595
     45 H17         1.1043   -5.8093    4.5313 H         1 <0>         0.0581
     46 H18        -1.7950   -0.7635    0.8408 H         1 <0>         0.4148
     47 H19        -1.6064   -0.1799   -4.4041 H         1 <0>         0.1787
     48 H20        -3.9358   -1.0332   -4.4299 H         1 <0>         0.1505
     49 H21        -5.8487   -1.7538   -4.3581 H         1 <0>         0.2229
     50 H22        -4.7610   -1.8231    0.5831 H         1 <0>         0.1387
     51 H23        -6.4584   -2.6011    2.1800 H         1 <0>         0.1331
     52 H24        -8.6674   -3.3365    1.3876 H         1 <0>         0.1333
     53 H25        -9.2064   -3.2948   -1.0063 H         1 <0>         0.1334
@<TRIPOS>BOND
     1    1    2 1
     2    1   29 1
     3    1   30 1
     4    1   31 1
     5    2    3 1
     6    2   13 1
     7    2   32 1
     8    3    8 1
     9    3    4 1
    10    3   33 1
    11    4    5 1
    12    4   34 1
    13    4   35 1
    14    5    6 1
    15    5   36 1
    16    5   37 1
    17    6    7 1
    18    6   38 1
    19    6   39 1
    20    7    8 1
    21    7    9 am
    22    8   40 1
    23    8   41 1
    24    9   10 2
    25    9   11 am
    26   11   12 1
    27   11   42 1
    28   12   43 1
    29   12   44 1
    30   12   45 1
    31   13   14 1
    32   13   46 1
    33   14   19 ar
    34   14   15 ar
    35   15   16 ar
    36   16   17 ar
    37   16   47 1
    38   17   18 ar
    39   17   48 1
    40   18   19 ar
    41   18   20 1
    42   20   24 1
    43   20   21 1
    44   21   22 2
    45   21   49 1
    46   22   23 1
    47   23   28 ar
    48   23   24 ar
    49   24   25 ar
    50   25   26 ar
    51   25   50 1
    52   26   27 ar
    53   26   51 1
    54   27   28 ar
    55   27   52 1
    56   28   53 1
@<TRIPOS>MOLECULE
CHEMBL584044__3
   53    56     0     0     0
SMALL
USER_CHARGES

@<TRIPOS>ATOM
      1 C1         -0.0178    1.5213    0.0079 C.3       1 <0>        -0.1693
      2 C2          0.0022   -0.0085    0.0010 C.3       1 <0>         0.1672
      3 C3          0.7420   -0.5145    1.2409 C.3       1 <0>        -0.1118
      4 C4          2.1770    0.0174    1.2321 C.3       1 <0>        -0.1124
      5 C5          2.9277   -0.5148    2.4549 C.3       1 <0>        -0.1352
      6 C6          2.2363   -0.0195    3.7290 C.3       1 <0>         0.1101
      7 N1          0.8188   -0.4026    3.6773 N.am      1 <0>        -0.6287
      8 C7          0.0259   -0.0192    2.5013 C.3       1 <0>         0.1303
      9 C8          0.2567   -1.0929    4.6892 C.2       1 <0>         0.7055
     10 O1         -0.9369   -1.3246    4.6778 O.2       1 <0>        -0.5863
     11 N2          1.0175   -1.5264    5.7137 N.am      1 <0>        -0.7513
     12 C9          0.4297   -2.3707    6.7567 C.3       1 <0>         0.1046
     13 N3         -1.3725   -0.5149    0.0120 N.pl3     1 <0>        -0.6898
     14 C10        -2.0694   -0.6508   -1.1760 C.ar      1 <0>         0.6016
     15 N4         -1.4757   -0.3233   -2.3144 N.ar      1 <0>        -0.5747
     16 C11        -2.1106   -0.4403   -3.4706 C.ar      1 <0>         0.2224
     17 C12        -3.4105   -0.9112   -3.4835 C.ar      1 <0>        -0.3087
     18 C13        -4.0083   -1.2477   -2.2694 C.ar      1 <0>         0.4503
     19 N5         -3.3112   -1.1102   -1.1472 N.ar      1 <0>        -0.5918
     20 N6         -5.3166   -1.7259   -2.2345 N.pl3     1 <0>        -0.4406
     21 C14        -6.1352   -1.9236   -3.3080 C.2       1 <0>         0.2743
     22 N7         -7.2873   -2.3790   -2.9124 N.2       1 <0>        -0.4712
     23 C15        -7.2906   -2.5059   -1.5598 C.ar      1 <0>         0.0422
     24 C16        -6.0263   -2.0946   -1.1052 C.ar      1 <0>         0.0570
     25 C17        -5.7350   -2.1220    0.2506 C.ar      1 <0>        -0.0891
     26 C18        -6.6877   -2.5562    1.1483 C.ar      1 <0>        -0.1024
     27 C19        -7.9363   -2.9666    0.7045 C.ar      1 <0>        -0.1195
     28 C20        -8.2456   -2.9387   -0.6366 C.ar      1 <0>        -0.0669
     29 H1          1.0050    1.8981   -0.0003 H         1 <0>         0.0723
     30 H2         -0.5449    1.8818   -0.8755 H         1 <0>         0.0632
     31 H3         -0.5277    1.8740    0.9044 H         1 <0>         0.0593
     32 H4          0.5121   -0.3612   -0.8955 H         1 <0>         0.0994
     33 H5          0.7575   -1.6044    1.2358 H         1 <0>         0.0825
     34 H6          2.6813   -0.3133    0.3241 H         1 <0>         0.0730
     35 H7          2.1606    1.1069    1.2619 H         1 <0>         0.0743
     36 H8          2.9231   -1.6047    2.4387 H         1 <0>         0.0686
     37 H9          3.9563   -0.1546    2.4356 H         1 <0>         0.0809
     38 H10         2.7063   -0.4751    4.6006 H         1 <0>         0.0772
     39 H11         2.3195    1.0655    3.7918 H         1 <0>         0.0730
     40 H12        -0.0712    1.0658    2.4639 H         1 <0>         0.0739
     41 H13        -0.9625   -0.4746    2.5627 H         1 <0>         0.0901
     42 H14         1.9544   -1.2793    5.7605 H         1 <0>         0.3966
     43 H15         1.1919   -2.6198    7.4950 H         1 <0>         0.0761
     44 H16        -0.3850   -1.8338    7.2425 H         1 <0>         0.0599
     45 H17         0.0448   -3.2868    6.3085 H         1 <0>         0.0581
     46 H18        -1.7942   -0.7549    0.8519 H         1 <0>         0.4143
     47 H19        -1.6185   -0.1704   -4.3933 H         1 <0>         0.1788
     48 H20        -3.9508   -1.0158   -4.4127 H         1 <0>         0.1507
     49 H21        -5.8659   -1.7299   -4.3358 H         1 <0>         0.2230
     50 H22        -4.7645   -1.8045    0.6023 H         1 <0>         0.1387
     51 H23        -6.4599   -2.5772    2.2038 H         1 <0>         0.1336
     52 H24        -8.6737   -3.3049    1.4174 H         1 <0>         0.1334
     53 H25        -9.2193   -3.2607   -0.9750 H         1 <0>         0.1334
@<TRIPOS>BOND
     1    1    2 1
     2    1   29 1
     3    1   30 1
     4    1   31 1
     5    2    3 1
     6    2   13 1
     7    2   32 1
     8    3    8 1
     9    3    4 1
    10    3   33 1
    11    4    5 1
    12    4   34 1
    13    4   35 1
    14    5    6 1
    15    5   36 1
    16    5   37 1
    17    6    7 1
    18    6   38 1
    19    6   39 1
    20    7    8 1
    21    7    9 am
    22    8   40 1
    23    8   41 1
    24    9   10 2
    25    9   11 am
    26   11   12 1
    27   11   42 1
    28   12   43 1
    29   12   44 1
    30   12   45 1
    31   13   14 1
    32   13   46 1
    33   14   19 ar
    34   14   15 ar
    35   15   16 ar
    36   16   17 ar
    37   16   47 1
    38   17   18 ar
    39   17   48 1
    40   18   19 ar
    41   18   20 1
    42   20   24 1
    43   20   21 1
    44   21   22 2
    45   21   49 1
    46   22   23 1
    47   23   28 ar
    48   23   24 ar
    49   24   25 ar
    50   25   26 ar
    51   25   50 1
    52   26   27 ar
    53   26   51 1
    54   27   28 ar
    55   27   52 1
    56   28   53 1
@<TRIPOS>MOLECULE
CHEMBL365318
   51    54     0     0     0
SMALL
USER_CHARGES

@<TRIPOS>ATOM
      1 C1         -0.6702    1.2041   -1.0152 C.3       1 <0>        -0.0607
      2 C2         -0.5737   -0.2752   -0.7444 C.2       1 <0>         0.1668
      3 N1         -0.8713   -1.2309   -1.5784 N.2       1 <0>        -0.2855
      4 N2         -0.6701   -2.3708   -1.0166 N.2       1 <0>        -0.2654
      5 C3         -0.2332   -2.1796    0.2064 C.2       1 <0>         0.2451
      6 O1         -0.1592   -0.8476    0.4001 O.3       1 <0>        -0.2217
      7 C4          0.1170   -3.2291    1.1866 C.2       1 <0>        -0.0970
      8 C5          0.5711   -3.0266    2.4774 C.2       1 <0>         0.1192
      9 N3          0.7791   -4.2219    3.0550 N.pl3     1 <0>        -0.2296
     10 C6          0.4640   -5.2185    2.1500 C.2       1 <0>        -0.1094
     11 C7          0.0443   -4.6202    0.9815 C.2       1 <0>        -0.0123
     12 C8         -0.4032   -5.3206   -0.2756 C.3       1 <0>        -0.0229
     13 C9         -1.8396   -4.9091   -0.6048 C.3       1 <0>        -0.1581
     14 C10         0.5176   -4.9288   -1.4330 C.3       1 <0>        -0.1568
     15 C11         0.6113   -6.5680    2.5534 C.2       1 <0>         0.5394
     16 N4          1.0429   -6.8330    3.7752 N.2       1 <0>        -0.6229
     17 C12         1.3424   -5.8616    4.6356 C.2       1 <0>         0.3351
     18 N5          1.2291   -4.5988    4.3290 N.2       1 <0>        -0.3420
     19 N6          0.3077   -7.5946    1.6819 N.pl3     1 <0>        -0.6145
     20 C13         0.3276   -8.9217    2.1291 C.ar      1 <0>         0.0993
     21 C14         0.2240   -9.1973    3.4813 C.ar      1 <0>        -0.0422
     22 C15         0.2437  -10.5220    3.9238 C.ar      1 <0>        -0.1541
     23 C16         0.3681  -11.5624    2.9968 C.ar      1 <0>         0.1852
     24 C17         0.4709  -11.2765    1.6484 C.ar      1 <0>        -0.1741
     25 C18         0.4458   -9.9635    1.2119 C.ar      1 <0>         0.1354
     26 F1          0.5410   -9.6909   -0.1079 F         1 <0>        -0.1187
     27 F2          0.3882  -12.8455    3.4192 F         1 <0>        -0.0993
     28 C19         0.1342  -10.8231    5.3644 C.2       1 <0>         0.5753
     29 O2          0.1516  -11.9770    5.7473 O.2       1 <0>        -0.4974
     30 N7          0.0149   -9.8191    6.2555 N.am      1 <0>        -0.5939
     31 O3         -0.0902  -10.1080    7.6377 O.3       1 <0>        -0.1369
     32 C20        -0.2108   -8.9498    8.4661 C.3       1 <0>        -0.0032
     33 H1          0.2725    1.5597   -1.4309 H         1 <0>         0.1011
     34 H2         -1.4746    1.3916   -1.7264 H         1 <0>         0.1092
     35 H3         -0.8785    1.7311   -0.0840 H         1 <0>         0.0942
     36 H4          0.7322   -2.0661    2.9440 H         1 <0>         0.1953
     37 H5         -0.3596   -6.3993   -0.1257 H         1 <0>         0.0596
     38 H6         -1.8832   -3.8303   -0.7547 H         1 <0>         0.0919
     39 H7         -2.1633   -5.4156   -1.5141 H         1 <0>         0.0662
     40 H8         -2.4956   -5.1882    0.2197 H         1 <0>         0.0488
     41 H9          1.5409   -5.2220   -1.1984 H         1 <0>         0.0493
     42 H10         0.1939   -5.4354   -2.3423 H         1 <0>         0.0669
     43 H11         0.4739   -3.8501   -1.5829 H         1 <0>         0.0890
     44 H12         1.6912   -6.1289    5.6222 H         1 <0>         0.2258
     45 H13         0.0805   -7.3968    0.7599 H         1 <0>         0.4310
     46 H14         0.1285   -8.3902    4.1926 H         1 <0>         0.1817
     47 H15         0.5672  -12.0800    0.9333 H         1 <0>         0.1683
     48 H16         0.0010   -8.8985    5.9500 H         1 <0>         0.4068
     49 H17         0.6669   -8.3168    8.3356 H         1 <0>         0.0588
     50 H18        -1.1050   -8.3935    8.1849 H         1 <0>         0.0574
     51 H19        -0.2863   -9.2557    9.5096 H         1 <0>         0.1167
@<TRIPOS>BOND
     1    1    2 1
     2    1   33 1
     3    1   34 1
     4    1   35 1
     5    2    6 1
     6    2    3 2
     7    3    4 1
     8    4    5 2
     9    5    6 1
    10    5    7 1
    11    7   11 1
    12    7    8 2
    13    8    9 1
    14    8   36 1
    15    9   18 1
    16    9   10 1
    17   10   11 2
    18   10   15 1
    19   11   12 1
    20   12   13 1
    21   12   14 1
    22   12   37 1
    23   13   38 1
    24   13   39 1
    25   13   40 1
    26   14   41 1
    27   14   42 1
    28   14   43 1
    29   15   16 2
    30   15   19 1
    31   16   17 1
    32   17   18 2
    33   17   44 1
    34   19   20 1
    35   19   45 1
    36   20   25 ar
    37   20   21 ar
    38   21   22 ar
    39   21   46 1
    40   22   23 ar
    41   22   28 1
    42   23   24 ar
    43   23   27 1
    44   24   25 ar
    45   24   47 1
    46   25   26 1
    47   28   29 2
    48   28   30 am
    49   30   31 1
    50   30   48 1
    51   31   32 1
    52   32   49 1
    53   32   50 1
    54   32   51 1
@<TRIPOS>MOLECULE
CHEMBL402548
   66    70     0     0     0
SMALL
USER_CHARGES

@<TRIPOS>ATOM
      1 C1          0.7850    1.5048    0.0021 C.3       1 <0>        -0.0472
      2 N1          0.7580    0.0360    0.0001 N.4       1 <0>        -0.3844
      3 C2         -0.6347   -0.4260   -0.0528 C.3       1 <0>        -0.0233
      4 C3         -0.6610   -1.9535   -0.1705 C.3       1 <0>         0.0948
      5 N2          0.1251   -2.5201    0.9364 N.pl3     1 <0>        -0.6397
      6 C4          1.4802   -1.9947    1.1643 C.3       1 <0>         0.0958
      7 C5          1.4053   -0.4653    1.2191 C.3       1 <0>        -0.0229
      8 C6         -0.3981   -3.5235    1.7446 C.ar      1 <0>         0.2274
      9 C7         -1.7227   -3.9220    1.5875 C.ar      1 <0>        -0.1950
     10 C8         -2.2435   -4.9143    2.3860 C.ar      1 <0>        -0.0041
     11 C9         -1.4408   -5.5227    3.3555 C.ar      1 <0>        -0.1718
     12 C10        -0.1108   -5.1206    3.5105 C.ar      1 <0>        -0.0339
     13 C11         0.4056   -4.1313    2.7053 C.ar      1 <0>        -0.1935
     14 C12        -1.9960   -6.5863    4.2134 C.2       1 <0>         0.5544
     15 O1         -3.1532   -6.9349    4.0778 O.2       1 <0>        -0.4845
     16 N3         -1.2209   -7.1719    5.1476 N.am      1 <0>        -0.6361
     17 C13        -1.7482   -8.1821    5.9625 C.2       1 <0>         0.3362
     18 C14        -1.0575   -8.8714    6.9758 C.2       1 <0>        -0.2825
     19 C15        -1.9094   -9.7615    7.5259 C.2       1 <0>         0.0771
     20 N4         -3.0975   -9.6466    6.8902 N.pl3     1 <0>        -0.4390
     21 H1         -3.8964  -10.1638    7.0776 H         1 <0>         0.4475
     22 N5         -2.9739   -8.6469    5.9178 N.2       1 <0>        -0.2476
     23 C16        -1.2016  -10.5209    8.6193 C.3       1 <0>         0.1701
     24 N6          0.1730  -10.0121    8.6910 N.am      1 <0>        -0.6104
     25 C17         0.2815   -8.9716    7.6619 C.3       1 <0>         0.1946
     26 C18         1.1425  -10.4191    9.5342 C.2       1 <0>         0.5508
     27 O2          2.2127   -9.8488    9.5481 O.2       1 <0>        -0.4984
     28 C19         0.8966  -11.5827   10.4597 C.3       1 <0>         0.1224
     29 H2         -0.0554  -11.4444   10.9723 H         1 <0>         0.0940
     30 C20         0.8561  -12.8600    9.6610 C.ar      1 <0>        -0.1223
     31 C21         2.0322  -13.4362    9.2188 C.ar      1 <0>        -0.0830
     32 C22         1.9951  -14.6078    8.4861 C.ar      1 <0>        -0.1181
     33 C23         0.7819  -15.2035    8.1962 C.ar      1 <0>        -0.1075
     34 C24        -0.3942  -14.6278    8.6392 C.ar      1 <0>        -0.1199
     35 C25        -0.3568  -13.4585    9.3755 C.ar      1 <0>        -0.1133
     36 O3          1.9498  -11.6562   11.4227 O.3       1 <0>        -0.3512
     37 C26         1.5496  -12.2019   12.6813 C.3       1 <0>         0.0269
     38 H3          1.8188    1.8491    0.0333 H         1 <0>         0.1258
     39 H4          0.3048    1.8783   -0.9023 H         1 <0>         0.1258
     40 H5          0.2516    1.8768    0.8769 H         1 <0>         0.1221
     41 H6         -1.1531   -0.1226    0.8568 H         1 <0>         0.1336
     42 H7         -1.1310    0.0138   -0.9179 H         1 <0>         0.1429
     43 H8         -1.6898   -2.3081   -0.1081 H         1 <0>         0.1298
     44 H9         -0.2236   -2.2551   -1.1223 H         1 <0>         0.0921
     45 H10         1.8669   -2.3766    2.1092 H         1 <0>         0.1291
     46 H11         2.1338   -2.3005    0.3474 H         1 <0>         0.0916
     47 H12         2.4123   -0.0545    1.2911 H         1 <0>         0.1429
     48 H13         0.8252   -0.1607    2.0902 H         1 <0>         0.1334
     49 H14        -2.3423   -3.4516    0.8383 H         1 <0>         0.1324
     50 H15        -3.2714   -5.2225    2.2641 H         1 <0>         0.1442
     51 H16         0.5118   -5.5886    4.2586 H         1 <0>         0.1327
     52 H17         1.4340   -3.8230    2.8217 H         1 <0>         0.1324
     53 H18        -0.2979   -6.8939    5.2558 H         1 <0>         0.4197
     54 H19        -1.7071  -10.3567    9.5709 H         1 <0>         0.0954
     55 H20        -1.1905  -11.5850    8.3833 H         1 <0>         0.1014
     56 H21         1.0487   -9.2458    6.9379 H         1 <0>         0.0789
     57 H22         0.5321   -8.0175    8.1255 H         1 <0>         0.0801
     58 H23         2.9801  -12.9707    9.4453 H         1 <0>         0.1307
     59 H24         2.9139  -15.0576    8.1400 H         1 <0>         0.1270
     60 H25         0.7528  -16.1185    7.6232 H         1 <0>         0.1258
     61 H26        -1.3421  -15.0931    8.4124 H         1 <0>         0.1269
     62 H27        -1.2754  -13.0107    9.7249 H         1 <0>         0.1243
     63 H28         1.1757  -13.2154   12.5355 H         1 <0>         0.0479
     64 H29         2.4051  -12.2238   13.3564 H         1 <0>         0.0967
     65 H30         0.7626  -11.5828   13.1120 H         1 <0>         0.0466
     66 H31         1.2546   -0.3072   -0.8084 H         1 <0>         0.4252
@<TRIPOS>BOND
     1    1    2 1
     2    1   38 1
     3    1   39 1
     4    1   40 1
     5    2    7 1
     6    2    3 1
     7    2   66 1
     8    3    4 1
     9    3   41 1
    10    3   42 1
    11    4    5 1
    12    4   43 1
    13    4   44 1
    14    5    6 1
    15    5    8 1
    16    6    7 1
    17    6   45 1
    18    6   46 1
    19    7   47 1
    20    7   48 1
    21    8   13 ar
    22    8    9 ar
    23    9   10 ar
    24    9   49 1
    25   10   11 ar
    26   10   50 1
    27   11   12 ar
    28   11   14 1
    29   12   13 ar
    30   12   51 1
    31   13   52 1
    32   14   15 2
    33   14   16 am
    34   16   17 1
    35   16   53 1
    36   17   22 2
    37   17   18 1
    38   18   25 1
    39   18   19 2
    40   19   20 1
    41   19   23 1
    42   20   21 1
    43   20   22 1
    44   23   24 1
    45   23   54 1
    46   23   55 1
    47   24   25 1
    48   24   26 am
    49   25   56 1
    50   25   57 1
    51   26   27 2
    52   26   28 1
    53   28   29 1
    54   28   30 1
    55   28   36 1
    56   30   35 ar
    57   30   31 ar
    58   31   32 ar
    59   31   58 1
    60   32   33 ar
    61   32   59 1
    62   33   34 ar
    63   33   60 1
    64   34   35 ar
    65   34   61 1
    66   35   62 1
    67   36   37 1
    68   37   63 1
    69   37   64 1
    70   37   65 1
@<TRIPOS>MOLECULE
CHEMBL402548__1
   66    70     0     0     0
SMALL
USER_CHARGES

@<TRIPOS>ATOM
      1 C1          1.1786    1.0540   -0.5238 C.3       1 <0>        -0.0474
      2 N1          1.4854   -0.3788   -0.4192 N.4       1 <0>        -0.3846
      3 C2          0.3239   -1.1599   -0.8628 C.3       1 <0>        -0.0233
      4 C3          0.6815   -2.6499   -0.8630 C.3       1 <0>         0.0940
      5 N2          1.1808   -3.0098    0.4731 N.pl3     1 <0>        -0.6385
      6 C4          2.2377   -2.1758    1.0661 C.3       1 <0>         0.0948
      7 C5          1.8066   -0.7082    0.9752 C.3       1 <0>        -0.0229
      8 C6          0.6681   -4.1070    1.1564 C.ar      1 <0>         0.2347
      9 C7         -0.4052   -4.8167    0.6248 C.ar      1 <0>        -0.1965
     10 C8         -0.9149   -5.9030    1.2985 C.ar      1 <0>         0.0011
     11 C9         -0.3535   -6.2938    2.5179 C.ar      1 <0>        -0.1808
     12 C10         0.7246   -5.5792    3.0487 C.ar      1 <0>        -0.0288
     13 C11         1.2328   -4.4968    2.3677 C.ar      1 <0>        -0.1939
     14 C12        -0.8976   -7.4572    3.2428 C.2       1 <0>         0.5689
     15 O1         -1.8356   -8.0777    2.7800 O.2       1 <0>        -0.5249
     16 N3         -0.3553   -7.8328    4.4181 N.am      1 <0>        -0.6401
     17 C13        -0.8696   -8.9323    5.1032 C.2       1 <0>         0.3556
     18 C14        -0.4227   -9.4213    6.2938 C.2       1 <0>        -0.3065
     19 C15        -1.2092  -10.5253    6.6273 C.2       1 <0>         0.0700
     20 N4         -2.0975  -10.7008    5.6798 N.2       1 <0>        -0.2414
     21 H1         -2.4326   -9.5974    3.8988 H         1 <0>         0.4562
     22 N5         -1.9115   -9.7087    4.7093 N.pl3     1 <0>        -0.4534
     23 C16        -0.7268  -11.0791    7.9445 C.3       1 <0>         0.1839
     24 N6          0.3965  -10.2510    8.3936 N.am      1 <0>        -0.6103
     25 C17         0.6020   -9.2126    7.3792 C.3       1 <0>         0.2042
     26 C18         1.1074  -10.4139    9.5269 C.2       1 <0>         0.5507
     27 O2          1.9568   -9.6036    9.8318 O.2       1 <0>        -0.5026
     28 C19         0.8469  -11.6029   10.4155 C.3       1 <0>         0.1221
     29 H2         -0.2267  -11.7147   10.5673 H         1 <0>         0.0945
     30 C20         1.3944  -12.8465    9.7638 C.ar      1 <0>        -0.1222
     31 C21         2.7547  -13.0918    9.7764 C.ar      1 <0>        -0.0836
     32 C22         3.2569  -14.2325    9.1787 C.ar      1 <0>        -0.1199
     33 C23         2.3987  -15.1283    8.5687 C.ar      1 <0>        -0.1081
     34 C24         1.0383  -14.8835    8.5569 C.ar      1 <0>        -0.1192
     35 C25         0.5357  -13.7448    9.1584 C.ar      1 <0>        -0.1104
     36 O3          1.4882  -11.4044   11.6770 O.3       1 <0>        -0.3519
     37 C26         0.8235  -12.0364   12.7728 C.3       1 <0>         0.0269
     38 H3          2.0430    1.6351   -0.2023 H         1 <0>         0.1263
     39 H4          0.9400    1.2998   -1.5586 H         1 <0>         0.1262
     40 H5          0.3252    1.2902    0.1118 H         1 <0>         0.1223
     41 H6         -0.5113   -0.9867   -0.1841 H         1 <0>         0.1338
     42 H7          0.0431   -0.8534   -1.8704 H         1 <0>         0.1437
     43 H8         -0.2058   -3.2395   -1.0935 H         1 <0>         0.1300
     44 H9          1.4551   -2.8407   -1.6068 H         1 <0>         0.0934
     45 H10         2.3792   -2.4519    2.1110 H         1 <0>         0.1295
     46 H11         3.1684   -2.3188    0.5171 H         1 <0>         0.0930
     47 H12         2.6184   -0.0688    1.3220 H         1 <0>         0.1438
     48 H13         0.9266   -0.5487    1.5983 H         1 <0>         0.1337
     49 H14        -0.8384   -4.5143   -0.3171 H         1 <0>         0.1345
     50 H15        -1.7480   -6.4527    0.8860 H         1 <0>         0.1453
     51 H16         1.1604   -5.8787    3.9904 H         1 <0>         0.1339
     52 H17         2.0679   -3.9466    2.7754 H         1 <0>         0.1348
     53 H18         0.3928   -7.3379    4.7872 H         1 <0>         0.4276
     54 H19        -1.5315  -11.0393    8.6787 H         1 <0>         0.0962
     55 H20        -0.3966  -12.1095    7.8130 H         1 <0>         0.1012
     56 H21         1.6052   -9.2978    6.9613 H         1 <0>         0.0764
     57 H22         0.4702   -8.2276    7.8270 H         1 <0>         0.0777
     58 H23         3.4252  -12.3920   10.2530 H         1 <0>         0.1300
     59 H24         4.3198  -14.4238    9.1879 H         1 <0>         0.1260
     60 H25         2.7912  -16.0192    8.1011 H         1 <0>         0.1250
     61 H26         0.3678  -15.5831    8.0801 H         1 <0>         0.1273
     62 H27        -0.5276  -13.5554    9.1524 H         1 <0>         0.1262
     63 H28        -0.1885  -11.6411   12.8607 H         1 <0>         0.0466
     64 H29         0.7798  -13.1117   12.5998 H         1 <0>         0.0480
     65 H30         1.3721  -11.8385   13.6936 H         1 <0>         0.0959
     66 H31         2.2773   -0.5956   -1.0057 H         1 <0>         0.4255
@<TRIPOS>BOND
     1    1    2 1
     2    1   38 1
     3    1   39 1
     4    1   40 1
     5    2    7 1
     6    2    3 1
     7    2   66 1
     8    3    4 1
     9    3   41 1
    10    3   42 1
    11    4    5 1
    12    4   43 1
    13    4   44 1
    14    5    6 1
    15    5    8 1
    16    6    7 1
    17    6   45 1
    18    6   46 1
    19    7   47 1
    20    7   48 1
    21    8   13 ar
    22    8    9 ar
    23    9   10 ar
    24    9   49 1
    25   10   11 ar
    26   10   50 1
    27   11   12 ar
    28   11   14 1
    29   12   13 ar
    30   12   51 1
    31   13   52 1
    32   14   15 2
    33   14   16 am
    34   16   53 1
    35   16   17 1
    36   17   18 2
    37   17   22 1
    38   18   19 1
    39   18   25 1
    40   19   20 2
    41   19   23 1
    42   20   22 1
    43   21   22 1
    44   23   24 1
    45   23   54 1
    46   23   55 1
    47   24   25 1
    48   24   26 am
    49   25   56 1
    50   25   57 1
    51   26   27 2
    52   26   28 1
    53   28   29 1
    54   28   30 1
    55   28   36 1
    56   30   35 ar
    57   30   31 ar
    58   31   32 ar
    59   31   58 1
    60   32   33 ar
    61   32   59 1
    62   33   34 ar
    63   33   60 1
    64   34   35 ar
    65   34   61 1
    66   35   62 1
    67   36   37 1
    68   37   63 1
    69   37   64 1
    70   37   65 1
@<TRIPOS>MOLECULE
CHEMBL572878
   62    66     0     0     0
SMALL
USER_CHARGES

@<TRIPOS>ATOM
      1 C1          0.6605   -0.0459    2.1766 C.3       1 <0>        -0.0811
      2 C2          0.1518   -0.6678    0.9016 C.2       1 <0>         0.1060
      3 C3          0.5159   -1.9211    0.4021 C.2       1 <0>        -0.2723
      4 C4         -0.1582   -2.1174   -0.7646 C.2       1 <0>         0.3252
      5 N1         -0.9212   -1.0157   -0.9849 N.pl3     1 <0>        -0.4965
      6 H1         -1.5109   -0.8710   -1.7414 H         1 <0>         0.4336
      7 N2         -0.7096   -0.1283    0.0780 N.2       1 <0>        -0.2841
      8 N3         -0.0793   -3.2424   -1.5828 N.pl3     1 <0>        -0.6253
      9 C5         -0.1793   -3.1069   -2.9599 C.ar      1 <0>         0.4729
     10 C6         -0.2071   -1.8436   -3.5441 C.ar      1 <0>        -0.3733
     11 C7         -0.3078   -1.7563   -4.9296 C.ar      1 <0>         0.4788
     12 N4         -0.3738   -2.8761   -5.6461 N.ar      1 <0>        -0.5790
     13 C8         -0.3445   -4.0620   -5.0560 C.ar      1 <0>         0.3699
     14 N5         -0.2442   -4.1831   -3.7403 N.ar      1 <0>        -0.5789
     15 S1         -0.4352   -5.5160   -6.0470 S.3       1 <0>         0.1323
     16 C9         -0.2148   -6.8312   -4.8954 C.ar      1 <0>        -0.1671
     17 C10        -1.3214   -7.4679   -4.3477 C.ar      1 <0>        -0.0279
     18 C11        -1.1485   -8.4985   -3.4459 C.ar      1 <0>        -0.1571
     19 C12         0.1316   -8.8987   -3.0857 C.ar      1 <0>         0.1921
     20 C13         1.2381   -8.2621   -3.6327 C.ar      1 <0>        -0.1322
     21 C14         1.0657   -7.2356   -4.5393 C.ar      1 <0>        -0.0281
     22 N6          0.3069   -9.9445   -2.1700 N.am      1 <0>        -0.6744
     23 C15         1.3500   -9.9254   -1.3167 C.2       1 <0>         0.5469
     24 O1          2.0821   -8.9592   -1.2754 O.2       1 <0>        -0.5137
     25 C16         1.6067  -11.1045   -0.4140 C.3       1 <0>        -0.2024
     26 C17         1.3853  -10.9065    1.0869 C.3       1 <0>        -0.1493
     27 C18         2.8064  -11.0219    0.5320 C.3       1 <0>        -0.1425
     28 N7         -0.3395   -0.5195   -5.5549 N.pl3     1 <0>        -0.6162
     29 C19        -0.6634   -0.4031   -6.9851 C.3       1 <0>         0.1024
     30 C20        -1.7593    0.6550   -7.1504 C.3       1 <0>        -0.0226
     31 N8         -1.3254    1.9097   -6.5232 N.4       1 <0>        -0.3849
     32 C21        -1.1753    1.7192   -5.0750 C.3       1 <0>        -0.0216
     33 C22        -0.0561    0.7143   -4.8056 C.3       1 <0>         0.0987
     34 C23        -2.3271    2.9538   -6.7768 C.3       1 <0>        -0.0472
     35 H2          0.0118   -0.3321    3.0044 H         1 <0>         0.0842
     36 H3          1.6744   -0.3951    2.3719 H         1 <0>         0.0837
     37 H4          0.6632    1.0394    2.0755 H         1 <0>         0.0773
     38 H5          1.2093   -2.6111    0.8597 H         1 <0>         0.1576
     39 H6          0.0455   -4.1203   -1.1896 H         1 <0>         0.4366
     40 H7         -0.1523   -0.9523   -2.9366 H         1 <0>         0.1428
     41 H8         -2.3170   -7.1562   -4.6272 H         1 <0>         0.1352
     42 H9         -2.0088   -8.9934   -3.0201 H         1 <0>         0.1349
     43 H10         2.2335   -8.5733   -3.3522 H         1 <0>         0.1415
     44 H11         1.9262   -6.7438   -4.9683 H         1 <0>         0.1326
     45 H12        -0.3225  -10.6824   -2.1501 H         1 <0>         0.4170
     46 H13         1.3636  -12.0803   -0.8345 H         1 <0>         0.1304
     47 H14         1.0539   -9.9234    1.4214 H         1 <0>         0.1003
     48 H15         0.9962  -11.7521    1.6541 H         1 <0>         0.1098
     49 H16         3.3523  -11.9434    0.7341 H         1 <0>         0.1088
     50 H17         3.4100  -10.1148    0.5014 H         1 <0>         0.1096
     51 H18         0.2253   -0.0996   -7.5384 H         1 <0>         0.0928
     52 H19        -1.0213   -1.3625   -7.3589 H         1 <0>         0.1404
     53 H20        -1.9444    0.8239   -8.2112 H         1 <0>         0.1457
     54 H21        -2.6751    0.3074   -6.6723 H         1 <0>         0.1323
     55 H22        -0.9302    2.6724   -4.6065 H         1 <0>         0.1470
     56 H23        -2.1089    1.3395   -4.6597 H         1 <0>         0.1334
     57 H24        -0.0126    0.4934   -3.7391 H         1 <0>         0.1254
     58 H25         0.8950    1.1327   -5.1351 H         1 <0>         0.0984
     59 H26        -3.2849    2.6485   -6.3554 H         1 <0>         0.1218
     60 H27        -2.0062    3.8859   -6.3116 H         1 <0>         0.1260
     61 H28        -2.4336    3.1019   -7.8514 H         1 <0>         0.1269
     62 H29        -0.4408    2.1930   -6.9173 H         1 <0>         0.4262
@<TRIPOS>BOND
     1    1    2 1
     2    1   35 1
     3    1   36 1
     4    1   37 1
     5    2    7 2
     6    2    3 1
     7    3    4 2
     8    3   38 1
     9    4    5 1
    10    4    8 1
    11    5    6 1
    12    5    7 1
    13    8    9 1
    14    8   39 1
    15    9   14 ar
    16    9   10 ar
    17   10   11 ar
    18   10   40 1
    19   11   12 ar
    20   11   28 1
    21   12   13 ar
    22   13   14 ar
    23   13   15 1
    24   15   16 1
    25   16   21 ar
    26   16   17 ar
    27   17   18 ar
    28   17   41 1
    29   18   19 ar
    30   18   42 1
    31   19   20 ar
    32   19   22 1
    33   20   21 ar
    34   20   43 1
    35   21   44 1
    36   22   23 am
    37   22   45 1
    38   23   24 2
    39   23   25 1
    40   25   27 1
    41   25   26 1
    42   25   46 1
    43   26   27 1
    44   26   47 1
    45   26   48 1
    46   27   49 1
    47   27   50 1
    48   28   33 1
    49   28   29 1
    50   29   30 1
    51   29   51 1
    52   29   52 1
    53   30   31 1
    54   30   53 1
    55   30   54 1
    56   31   32 1
    57   31   34 1
    58   31   62 1
    59   32   33 1
    60   32   55 1
    61   32   56 1
    62   33   57 1
    63   33   58 1
    64   34   59 1
    65   34   60 1
    66   34   61 1
@<TRIPOS>MOLECULE
CHEMBL572878__1
   62    66     0     0     0
SMALL
USER_CHARGES

@<TRIPOS>ATOM
      1 C1         -0.0203   -0.4189   -2.7288 C.3       1 <0>        -0.1024
      2 C2         -0.0072   -0.8795   -1.2939 C.2       1 <0>         0.1306
      3 C3          0.0080   -2.1636   -0.8701 C.2       1 <0>        -0.2894
      4 C4          0.0168   -2.1537    0.5342 C.2       1 <0>         0.3349
      5 N1          0.0071   -0.9032    0.9320 N.2       1 <0>        -0.3401
      6 H1         -0.0077    0.8864   -0.2066 H         1 <0>         0.4405
      7 N2         -0.0027   -0.0836   -0.2039 N.pl3     1 <0>        -0.4741
      8 N3          0.0327   -3.2813    1.3649 N.pl3     1 <0>        -0.6092
      9 C5          0.1476   -3.1291    2.7387 C.ar      1 <0>         0.4608
     10 C6          0.1255   -1.8606    3.3120 C.ar      1 <0>        -0.3458
     11 C7          0.2440   -1.7562    4.6948 C.ar      1 <0>         0.4614
     12 N4          0.3737   -2.8652    5.4194 N.ar      1 <0>        -0.5791
     13 C8          0.3906   -4.0564    4.8397 C.ar      1 <0>         0.3615
     14 N5          0.2748   -4.1940    3.5268 N.ar      1 <0>        -0.5810
     15 S1          0.5650   -5.4957    5.8411 S.3       1 <0>         0.1206
     16 C9          0.3894   -6.8301    4.7039 C.ar      1 <0>        -0.1613
     17 C10         1.5165   -7.4193    4.1448 C.ar      1 <0>        -0.0287
     18 C11         1.3787   -8.4646    3.2539 C.ar      1 <0>        -0.1320
     19 C12         0.1135   -8.9270    2.9161 C.ar      1 <0>         0.1896
     20 C13        -1.0133   -8.3382    3.4749 C.ar      1 <0>        -0.1565
     21 C14        -0.8759   -7.2969    4.3705 C.ar      1 <0>        -0.0291
     22 N6         -0.0261   -9.9874    2.0111 N.am      1 <0>        -0.6751
     23 C15         0.8857  -10.9797    1.9898 C.2       1 <0>         0.5458
     24 O1          1.7696  -11.0090    2.8199 O.2       1 <0>        -0.5122
     25 C16         0.8070  -12.0528    0.9347 C.3       1 <0>        -0.2020
     26 C17         0.4357  -13.4655    1.3902 C.3       1 <0>        -0.1494
     27 C18         1.8713  -13.1517    0.9640 C.3       1 <0>        -0.1431
     28 N7          0.2277   -0.5137    5.3093 N.pl3     1 <0>        -0.6169
     29 C19         0.5721   -0.3690    6.7321 C.3       1 <0>         0.1034
     30 C20         1.6187    0.7419    6.8680 C.3       1 <0>        -0.0226
     31 N8          1.1133    1.9687    6.2389 N.4       1 <0>        -0.3850
     32 C21         0.9458    1.7581    4.7954 C.3       1 <0>        -0.0207
     33 C22        -0.1286    0.6983    4.5555 C.3       1 <0>         0.0987
     34 C23         2.0681    3.0619    6.4649 C.3       1 <0>        -0.0469
     35 H2         -1.0511   -0.3180   -3.0686 H         1 <0>         0.0891
     36 H3          0.4835    0.5446   -2.8057 H         1 <0>         0.0768
     37 H4          0.4971   -1.1501   -3.3498 H         1 <0>         0.0930
     38 H5          0.0127   -3.0410   -1.4997 H         1 <0>         0.1559
     39 H6         -0.0366   -4.1688    0.9794 H         1 <0>         0.4320
     40 H7          0.0194   -0.9783    2.6982 H         1 <0>         0.1873
     41 H8          2.5004   -7.0592    4.4069 H         1 <0>         0.1341
     42 H9          2.2548   -8.9226    2.8193 H         1 <0>         0.1397
     43 H10        -1.9971   -8.6977    3.2117 H         1 <0>         0.1338
     44 H11        -1.7520   -6.8419    4.8084 H         1 <0>         0.1331
     45 H12        -0.7791  -10.0075    1.3999 H         1 <0>         0.4156
     46 H13         0.4465  -11.7272   -0.0410 H         1 <0>         0.1293
     47 H14         0.2484  -13.6187    2.4530 H         1 <0>         0.1016
     48 H15        -0.1694  -14.0695    0.7141 H         1 <0>         0.1095
     49 H16         2.2106  -13.5492    0.0075 H         1 <0>         0.1082
     50 H17         2.6283  -13.0984    1.7463 H         1 <0>         0.1101
     51 H18        -0.3197   -0.1034    7.2997 H         1 <0>         0.0902
     52 H19         0.9826   -1.3067    7.1069 H         1 <0>         0.1389
     53 H20         1.8150    0.9291    7.9237 H         1 <0>         0.1439
     54 H21         2.5412    0.4344    6.3755 H         1 <0>         0.1318
     55 H22         0.6464    2.6941    4.3239 H         1 <0>         0.1434
     56 H23         1.8887    1.4198    4.3657 H         1 <0>         0.1329
     57 H24        -0.1812    0.4659    3.4919 H         1 <0>         0.1343
     58 H25        -1.0924    1.0735    4.8996 H         1 <0>         0.0934
     59 H26         3.0315    2.7990    6.0280 H         1 <0>         0.1212
     60 H27         1.6941    3.9733    5.9984 H         1 <0>         0.1247
     61 H28         2.1873    3.2246    7.5361 H         1 <0>         0.1260
     62 H29         0.2235    2.2127    6.6474 H         1 <0>         0.4252
@<TRIPOS>BOND
     1    1    2 1
     2    1   35 1
     3    1   36 1
     4    1   37 1
     5    2    3 2
     6    2    7 1
     7    3   38 1
     8    3    4 1
     9    4    8 1
    10    4    5 2
    11    5    7 1
    12    6    7 1
    13    8    9 1
    14    8   39 1
    15    9   14 ar
    16    9   10 ar
    17   10   11 ar
    18   10   40 1
    19   11   12 ar
    20   11   28 1
    21   12   13 ar
    22   13   14 ar
    23   13   15 1
    24   15   16 1
    25   16   21 ar
    26   16   17 ar
    27   17   18 ar
    28   17   41 1
    29   18   19 ar
    30   18   42 1
    31   19   20 ar
    32   19   22 1
    33   20   21 ar
    34   20   43 1
    35   21   44 1
    36   22   23 am
    37   22   45 1
    38   23   24 2
    39   23   25 1
    40   25   27 1
    41   25   26 1
    42   25   46 1
    43   26   27 1
    44   26   47 1
    45   26   48 1
    46   27   49 1
    47   27   50 1
    48   28   33 1
    49   28   29 1
    50   29   30 1
    51   29   51 1
    52   29   52 1
    53   30   31 1
    54   30   53 1
    55   30   54 1
    56   31   32 1
    57   31   34 1
    58   31   62 1
    59   32   33 1
    60   32   55 1
    61   32   56 1
    62   33   57 1
    63   33   58 1
    64   34   59 1
    65   34   60 1
    66   34   61 1
@<TRIPOS>MOLECULE
CHEMBL475575
   58    61     0     0     0
SMALL
USER_CHARGES

@<TRIPOS>ATOM
      1 C1         -2.8061    0.1523   -0.8439 C.3       1 <0>         0.0258
      2 O1         -1.8074   -0.8276   -0.5536 O.3       1 <0>        -0.3078
      3 C2         -1.2171   -1.4398   -1.6136 C.ar      1 <0>         0.2093
      4 C3         -0.2440   -2.4045   -1.4030 C.ar      1 <0>        -0.2278
      5 C4          0.3587   -3.0302   -2.4862 C.ar      1 <0>         0.2747
      6 C5         -0.0139   -2.6889   -3.7795 C.ar      1 <0>        -0.2431
      7 C6         -0.9871   -1.7239   -3.9884 C.ar      1 <0>         0.1961
      8 C7         -1.5924   -1.1033   -2.9057 C.ar      1 <0>        -0.3294
      9 O2         -1.3516   -1.3895   -5.2541 O.3       1 <0>        -0.3228
     10 C8         -2.3605   -0.3874   -5.3953 C.3       1 <0>         0.0251
     11 N1          1.3402   -4.0027   -2.2748 N.pl3     1 <0>        -0.6373
     12 C9          1.8724   -4.6891   -3.3455 C.2       1 <0>         0.5058
     13 C10         1.7958   -6.0921   -3.3929 C.2       1 <0>        -0.2499
     14 C11         2.3800   -6.7622   -4.5569 C.2       1 <0>         0.3708
     15 N2          2.4931   -8.0207   -4.9337 N.2       1 <0>        -0.5373
     16 C12         3.1249   -8.0812   -6.1035 C.2       1 <0>         0.2770
     17 N3          3.4298   -6.8713   -6.5016 N.2       1 <0>        -0.3384
     18 N4          2.9622   -5.9850   -5.5230 N.pl3     1 <0>        -0.3718
     19 C13         2.9847   -4.6300   -5.3835 C.2       1 <0>         0.6765
     20 N5          2.4570   -4.0247   -4.3429 N.2       1 <0>        -0.5610
     21 N6          3.5721   -3.8734   -6.3619 N.pl3     1 <0>        -0.7034
     22 C14         3.6097   -2.4143   -6.2362 C.3       1 <0>         0.1402
     23 H1          2.6978   -2.0679   -5.7498 H         1 <0>         0.1313
     24 C15         4.8220   -2.0058   -5.3970 C.3       1 <0>        -0.1295
     25 C16         6.1020   -2.4920   -6.0797 C.3       1 <0>        -0.1317
     26 C17         6.2090   -1.8629   -7.4702 C.3       1 <0>        -0.1178
     27 C18         4.9966   -2.2714   -8.3094 C.3       1 <0>        -0.1449
     28 C19         3.7166   -1.7852   -7.6267 C.3       1 <0>         0.0191
     29 H2          3.7446   -0.6995   -7.5332 H         1 <0>         0.1665
     30 N7          2.5526   -2.1774   -8.4325 N.4       1 <0>        -0.6389
     31 C20         1.1568   -6.8544   -2.3194 C.2       1 <0>         0.5850
     32 O3          0.5913   -6.2716   -1.4123 O.2       1 <0>        -0.5360
     33 N8          1.1943   -8.2015   -2.3349 N.am      1 <0>        -0.8414
     34 H3         -2.3669    0.9539   -1.4377 H         1 <0>         0.0570
     35 H4         -3.6183   -0.3115   -1.4038 H         1 <0>         0.0579
     36 H5         -3.1951    0.5619    0.0883 H         1 <0>         0.1066
     37 H6          0.0454   -2.6691   -0.3968 H         1 <0>         0.1405
     38 H7          0.4546   -3.1748   -4.6226 H         1 <0>         0.1264
     39 H8         -2.3537   -0.3548   -3.0690 H         1 <0>         0.1359
     40 H9         -2.5567   -0.2160   -6.4537 H         1 <0>         0.1015
     41 H10        -3.2753   -0.7214   -4.9057 H         1 <0>         0.0600
     42 H11        -2.0192    0.5394   -4.9343 H         1 <0>         0.0587
     43 H12         1.6469   -4.1946   -1.3748 H         1 <0>         0.4366
     44 H13         3.3522   -8.9894   -6.6419 H         1 <0>         0.2397
     45 H14         3.9633   -4.3035   -7.1384 H         1 <0>         0.4217
     46 H15         4.8500   -0.9202   -5.3034 H         1 <0>         0.0931
     47 H16         4.7458   -2.4540   -4.4063 H         1 <0>         0.0941
     48 H17         6.9657   -2.2010   -5.4818 H         1 <0>         0.0844
     49 H18         6.0741   -3.5776   -6.1733 H         1 <0>         0.0670
     50 H19         6.2369   -0.7772   -7.3767 H         1 <0>         0.0813
     51 H20         7.1209   -2.2092   -7.9566 H         1 <0>         0.0891
     52 H21         5.0728   -1.8231   -9.3001 H         1 <0>         0.0992
     53 H22         4.9687   -3.3570   -8.4030 H         1 <0>         0.0834
     54 H23         1.7085   -1.8567   -7.9823 H         1 <0>         0.4411
     55 H24         2.6231   -1.7625   -9.3495 H         1 <0>         0.4409
     56 H25         1.6448   -8.6659   -3.0577 H         1 <0>         0.4128
     57 H26         0.7708   -8.7068   -1.6234 H         1 <0>         0.4085
     58 H27         2.5267   -3.1823   -8.5191 H         1 <0>         0.4296
@<TRIPOS>BOND
     1    1    2 1
     2    1   34 1
     3    1   35 1
     4    1   36 1
     5    2    3 1
     6    3    8 ar
     7    3    4 ar
     8    4    5 ar
     9    4   37 1
    10    5    6 ar
    11    5   11 1
    12    6    7 ar
    13    6   38 1
    14    7    8 ar
    15    7    9 1
    16    8   39 1
    17    9   10 1
    18   10   40 1
    19   10   41 1
    20   10   42 1
    21   11   12 1
    22   11   43 1
    23   12   20 1
    24   12   13 2
    25   13   14 1
    26   13   31 1
    27   14   18 1
    28   14   15 2
    29   15   16 1
    30   16   17 2
    31   16   44 1
    32   17   18 1
    33   18   19 1
    34   19   20 2
    35   19   21 1
    36   21   22 1
    37   21   45 1
    38   22   23 1
    39   22   28 1
    40   22   24 1
    41   24   25 1
    42   24   46 1
    43   24   47 1
    44   25   26 1
    45   25   48 1
    46   25   49 1
    47   26   27 1
    48   26   50 1
    49   26   51 1
    50   27   28 1
    51   27   52 1
    52   27   53 1
    53   28   29 1
    54   28   30 1
    55   30   54 1
    56   30   55 1
    57   30   58 1
    58   31   32 2
    59   31   33 am
    60   33   56 1
    61   33   57 1
@<TRIPOS>MOLECULE
CHEMBL301143
   60    64     0     0     0
SMALL
USER_CHARGES

@<TRIPOS>ATOM
      1 C1          1.3771    2.8279   -0.4487 C.3       1 <0>         0.0815
      2 N1          0.9915    1.5691    0.1939 N.pl3     1 <0>        -1.1204
      3 S1          0.9559    0.1670   -0.6865 S.o2      1 <0>         2.6995
      4 O1          0.5762   -0.8669    0.2114 O.2       1 <0>        -0.9564
      5 O2          0.2275    0.4509   -1.8731 O.2       1 <0>        -0.9527
      6 C2          2.6109   -0.1791   -1.1822 C.ar      1 <0>        -0.6977
      7 C3          3.0943    0.3247   -2.3785 C.ar      1 <0>         0.0105
      8 C4          4.3881    0.0625   -2.7805 C.ar      1 <0>        -0.1535
      9 C5          5.2223   -0.7145   -1.9840 C.ar      1 <0>         0.1959
     10 C6          4.7296   -1.2225   -0.7743 C.ar      1 <0>        -0.1121
     11 C7          3.4255   -0.9472   -0.3753 C.ar      1 <0>         0.0337
     12 C8          5.8352   -1.9947   -0.1653 C.2       1 <0>        -0.2134
     13 C9          5.8206   -2.6801    1.0345 C.2       1 <0>         0.0879
     14 C10         7.0120   -3.2374    1.5427 C.2       1 <0>        -0.0200
     15 C11         7.1226   -4.4129    2.2728 C.2       1 <0>        -0.0761
     16 C12         8.4707   -4.5818    2.5676 C.2       1 <0>        -0.1523
     17 C13         9.1563   -3.5351    2.0303 C.2       1 <0>         0.0701
     18 N2          8.2822   -2.7173    1.4002 N.pl3     1 <0>        -0.5016
     19 H1          8.5099   -1.9006    0.9289 H         1 <0>         0.4191
     20 C14        10.6526   -3.3633    2.1435 C.3       1 <0>        -0.0562
     21 C15        11.1615   -4.2766    3.2649 C.3       1 <0>        -0.1127
     22 C16        10.6181   -5.6929    3.0582 C.3       1 <0>        -0.1202
     23 C17         9.1109   -5.7080    3.3407 C.3       1 <0>        -0.0463
     24 C18         5.9957   -5.3310    2.6706 C.3       1 <0>         0.1200
     25 N3          5.7969   -6.3437    1.6253 N.3       1 <0>        -0.5269
     26 C19         5.3148   -5.7281    0.3803 C.3       1 <0>         0.0157
     27 C20         5.1786   -6.8075   -0.6969 C.3       1 <0>         0.0651
     28 O3          4.3025   -7.8354   -0.2266 O.3       1 <0>        -0.3846
     29 C21         4.7420   -8.4570    0.9841 C.3       1 <0>         0.0634
     30 C22         4.8738   -7.3944    2.0784 C.3       1 <0>         0.0169
     31 C23         6.9512   -1.8756   -1.1123 C.2       1 <0>         0.5583
     32 O4          8.0564   -2.3715   -0.9824 O.2       1 <0>        -0.5023
     33 N4          6.5401   -1.1233   -2.1472 N.am      1 <0>        -0.6505
     34 H2          2.3891    2.7392   -0.8436 H         1 <0>         0.0601
     35 H3          0.6869    3.0462   -1.2636 H         1 <0>         0.0707
     36 H4          1.3421    3.6350    0.2831 H         1 <0>         0.0846
     37 H5          0.7571    1.5569    1.1351 H         1 <0>         0.4204
     38 H6          2.4522    0.9284   -3.0029 H         1 <0>         0.1501
     39 H7          4.7533    0.4610   -3.7155 H         1 <0>         0.1398
     40 H8          3.0509   -1.3364    0.5599 H         1 <0>         0.1448
     41 H9          4.8966   -2.7890    1.5829 H         1 <0>         0.1514
     42 H10        11.1261   -3.6401    1.2015 H         1 <0>         0.0822
     43 H11        10.8860   -2.3254    2.3811 H         1 <0>         0.0742
     44 H12        12.2511   -4.2996    3.2481 H         1 <0>         0.0709
     45 H13        10.8214   -3.8940    4.2272 H         1 <0>         0.0676
     46 H14        10.7982   -6.0046    2.0294 H         1 <0>         0.0644
     47 H15        11.1223   -6.3785    3.7392 H         1 <0>         0.0670
     48 H16         8.9358   -5.5671    4.4073 H         1 <0>         0.0675
     49 H17         8.6870   -6.6600    3.0212 H         1 <0>         0.0757
     50 H18         6.2429   -5.8233    3.6112 H         1 <0>         0.0893
     51 H19         5.0809   -4.7512    2.7936 H         1 <0>         0.0422
     52 H20         4.3440   -5.2644    0.5557 H         1 <0>         0.0418
     53 H21         6.0259   -4.9713    0.0493 H         1 <0>         0.0882
     54 H22         4.7673   -6.3659   -1.6046 H         1 <0>         0.0947
     55 H23         6.1586   -7.2341   -0.9106 H         1 <0>         0.0587
     56 H24         4.0150   -9.2085    1.2922 H         1 <0>         0.0987
     57 H25         5.7094   -8.9316    0.8193 H         1 <0>         0.0597
     58 H26         5.2630   -7.8538    2.9869 H         1 <0>         0.0881
     59 H27         3.8960   -6.9573    2.2809 H         1 <0>         0.0444
     60 H28         7.0928   -0.8952   -2.9110 H         1 <0>         0.4214
@<TRIPOS>BOND
     1    1    2 1
     2    1   34 1
     3    1   35 1
     4    1   36 1
     5    2    3 1
     6    2   37 1
     7    3    4 2
     8    3    5 2
     9    3    6 1
    10    6   11 ar
    11    6    7 ar
    12    7    8 ar
    13    7   38 1
    14    8    9 ar
    15    8   39 1
    16    9   33 1
    17    9   10 ar
    18   10   11 ar
    19   10   12 1
    20   11   40 1
    21   12   13 2
    22   12   31 1
    23   13   14 1
    24   13   41 1
    25   14   18 1
    26   14   15 2
    27   15   16 1
    28   15   24 1
    29   16   23 1
    30   16   17 2
    31   17   18 1
    32   17   20 1
    33   18   19 1
    34   20   21 1
    35   20   42 1
    36   20   43 1
    37   21   22 1
    38   21   44 1
    39   21   45 1
    40   22   23 1
    41   22   46 1
    42   22   47 1
    43   23   48 1
    44   23   49 1
    45   24   25 1
    46   24   50 1
    47   24   51 1
    48   25   30 1
    49   25   26 1
    50   26   27 1
    51   26   52 1
    52   26   53 1
    53   27   28 1
    54   27   54 1
    55   27   55 1
    56   28   29 1
    57   29   30 1
    58   29   56 1
    59   29   57 1
    60   30   58 1
    61   30   59 1
    62   31   32 2
    63   31   33 am
    64   33   60 1
@<TRIPOS>MOLECULE
CHEMBL301143__1
   61    65     0     0     0
SMALL
USER_CHARGES

@<TRIPOS>ATOM
      1 C1          1.3770    2.8279   -0.4486 C.3       1 <0>         0.0794
      2 N1          0.9915    1.5690    0.1939 N.pl3     1 <0>        -1.1185
      3 S1          0.9558    0.1670   -0.6865 S.o2      1 <0>         2.6989
      4 O1          0.5762   -0.8669    0.2114 O.2       1 <0>        -0.9569
      5 O2          0.2275    0.4509   -1.8731 O.2       1 <0>        -0.9458
      6 C2          2.6109   -0.1791   -1.1822 C.ar      1 <0>        -0.6978
      7 C3          3.0943    0.3247   -2.3785 C.ar      1 <0>         0.0258
      8 C4          4.3881    0.0625   -2.7805 C.ar      1 <0>        -0.1500
      9 C5          5.2223   -0.7145   -1.9840 C.ar      1 <0>         0.2020
     10 C6          4.7296   -1.2225   -0.7743 C.ar      1 <0>        -0.1385
     11 C7          3.4255   -0.9472   -0.3753 C.ar      1 <0>         0.0449
     12 C8          5.8352   -1.9947   -0.1653 C.2       1 <0>        -0.1529
     13 C9          5.8206   -2.6801    1.0345 C.2       1 <0>         0.0199
     14 C10         7.0120   -3.2374    1.5427 C.2       1 <0>         0.0370
     15 C11         7.1226   -4.4129    2.2728 C.2       1 <0>        -0.1864
     16 C12         8.4707   -4.5818    2.5676 C.2       1 <0>        -0.1424
     17 C13         9.1563   -3.5351    2.0303 C.2       1 <0>         0.0785
     18 N2          8.2822   -2.7173    1.4002 N.pl3     1 <0>        -0.4868
     19 H1          8.5099   -1.9006    0.9289 H         1 <0>         0.4290
     20 C14        10.6526   -3.3633    2.1435 C.3       1 <0>        -0.0637
     21 C15        11.1615   -4.2766    3.2649 C.3       1 <0>        -0.1162
     22 C16        10.6181   -5.6929    3.0582 C.3       1 <0>        -0.1232
     23 C17         9.1109   -5.7080    3.3407 C.3       1 <0>        -0.0533
     24 C18         5.9957   -5.3310    2.6706 C.3       1 <0>         0.0746
     25 N3          5.7969   -6.3437    1.6253 N.4       1 <0>        -0.3830
     26 C19         5.3462   -5.6898    0.3890 C.3       1 <0>        -0.0497
     27 C20         5.1400   -6.7470   -0.6987 C.3       1 <0>         0.0395
     28 O3          4.1922   -7.7156   -0.2411 O.3       1 <0>        -0.3554
     29 C21         4.5757   -8.3637    0.9749 C.3       1 <0>         0.0357
     30 C22         4.7809   -7.3096    2.0657 C.3       1 <0>        -0.0450
     31 C23         6.9512   -1.8755   -1.1123 C.2       1 <0>         0.5551
     32 O4          8.0564   -2.3714   -0.9823 O.2       1 <0>        -0.4991
     33 N4          6.5401   -1.1233   -2.1472 N.am      1 <0>        -0.6465
     34 H2          2.3891    2.7392   -0.8436 H         1 <0>         0.0595
     35 H3          0.6868    3.0462   -1.2635 H         1 <0>         0.0735
     36 H4          1.3420    3.6350    0.2832 H         1 <0>         0.0879
     37 H5          0.7571    1.5568    1.1351 H         1 <0>         0.4218
     38 H6          2.4522    0.9284   -3.0029 H         1 <0>         0.1566
     39 H7          4.7533    0.4611   -3.7154 H         1 <0>         0.1462
     40 H8          3.0509   -1.3364    0.5599 H         1 <0>         0.1475
     41 H9          4.8966   -2.7890    1.5829 H         1 <0>         0.1608
     42 H10        11.1261   -3.6401    1.2015 H         1 <0>         0.0893
     43 H11        10.8860   -2.3254    2.3811 H         1 <0>         0.0828
     44 H12        12.2511   -4.2996    3.2481 H         1 <0>         0.0799
     45 H13        10.8214   -3.8940    4.2272 H         1 <0>         0.0715
     46 H14        10.7982   -6.0046    2.0294 H         1 <0>         0.0674
     47 H15        11.1223   -6.3785    3.7392 H         1 <0>         0.0757
     48 H16         8.9358   -5.5671    4.4073 H         1 <0>         0.0811
     49 H17         8.6870   -6.6600    3.0212 H         1 <0>         0.0643
     50 H18         6.2429   -5.8233    3.6112 H         1 <0>         0.1411
     51 H19         5.0809   -4.7512    2.7936 H         1 <0>         0.1327
     52 H20         4.4059   -5.1705    0.5742 H         1 <0>         0.1379
     53 H21         6.0993   -4.9731    0.0613 H         1 <0>         0.1387
     54 H22         4.7645   -6.2696   -1.6038 H         1 <0>         0.1381
     55 H23         6.0888   -7.2389   -0.9126 H         1 <0>         0.0795
     56 H24         3.7918   -9.0565    1.2811 H         1 <0>         0.1424
     57 H25         5.5052   -8.9110    0.8182 H         1 <0>         0.0800
     58 H26         5.1143   -7.7953    2.9827 H         1 <0>         0.1438
     59 H27         3.8408   -6.7897    2.2503 H         1 <0>         0.1403
     60 H28         7.0928   -0.8951   -2.9110 H         1 <0>         0.4283
     61 H29         6.6668   -6.8252    1.4535 H         1 <0>         0.4225
@<TRIPOS>BOND
     1    1    2 1
     2    1   34 1
     3    1   35 1
     4    1   36 1
     5    2    3 1
     6    2   37 1
     7    3    4 2
     8    3    5 2
     9    3    6 1
    10    6   11 ar
    11    6    7 ar
    12    7    8 ar
    13    7   38 1
    14    8    9 ar
    15    8   39 1
    16    9   33 1
    17    9   10 ar
    18   10   11 ar
    19   10   12 1
    20   11   40 1
    21   12   13 2
    22   12   31 1
    23   13   14 1
    24   13   41 1
    25   14   18 1
    26   14   15 2
    27   15   16 1
    28   15   24 1
    29   16   23 1
    30   16   17 2
    31   17   18 1
    32   17   20 1
    33   18   19 1
    34   20   21 1
    35   20   42 1
    36   20   43 1
    37   21   22 1
    38   21   44 1
    39   21   45 1
    40   22   23 1
    41   22   46 1
    42   22   47 1
    43   23   48 1
    44   23   49 1
    45   24   25 1
    46   24   50 1
    47   24   51 1
    48   25   30 1
    49   25   26 1
    50   25   61 1
    51   26   27 1
    52   26   52 1
    53   26   53 1
    54   27   28 1
    55   27   54 1
    56   27   55 1
    57   28   29 1
    58   29   30 1
    59   29   56 1
    60   29   57 1
    61   30   58 1
    62   30   59 1
    63   31   32 2
    64   31   33 am
    65   33   60 1
@<TRIPOS>MOLECULE
CHEMBL258403
   34    36     0     0     0
SMALL
USER_CHARGES

@<TRIPOS>ATOM
      1 C1         -2.3214    0.0982    0.8110 C.3       1 <0>        -0.1145
      2 C2         -1.1011   -0.6771    0.3857 C.ar      1 <0>        -0.0626
      3 C3         -1.0979   -1.3558   -0.8177 C.ar      1 <0>        -0.1116
      4 C4          0.0209   -2.0675   -1.2092 C.ar      1 <0>        -0.0949
      5 C5          1.1409   -2.1024   -0.3984 C.ar      1 <0>        -0.1131
      6 C6          1.1446   -1.4259    0.8064 C.ar      1 <0>        -0.0209
      7 C7          0.0229   -0.7052    1.2000 C.ar      1 <0>         0.1408
      8 N1          0.0246   -0.0146    2.4167 N.am      1 <0>        -0.6817
      9 C8         -0.3554   -0.6412    3.5478 C.2       1 <0>         0.6265
     10 O1         -0.6126   -1.8312    3.5276 O.2       1 <0>        -0.5118
     11 C9         -0.4588    0.1079    4.7990 C.2       1 <0>        -0.3302
     12 C10        -0.8201   -0.3284    6.0660 C.2       1 <0>         0.1878
     13 N2         -0.8255    0.5758    7.0129 N.2       1 <0>        -0.5915
     14 C11        -0.5030    1.8337    6.7676 C.2       1 <0>         0.3396
     15 S1         -0.1477    1.8363    5.1226 S.3       1 <0>         0.1200
     16 N3         -0.4622    2.8914    7.6505 N.pl3     1 <0>        -0.6381
     17 C12        -0.8044    2.6829    9.0596 C.3       1 <0>         0.0856
     18 C13        -1.6999    3.7262    9.7310 C.3       1 <0>        -0.1896
     19 C14        -0.2123    3.6553   10.0818 C.3       1 <0>        -0.1854
     20 Cl1         2.5502   -1.4709    1.8243 Cl        1 <0>        -0.0573
     21 H1         -2.2506    1.1201    0.4386 H         1 <0>         0.0764
     22 H2         -3.2138   -0.3763    0.4028 H         1 <0>         0.0739
     23 H3         -2.3824    0.1114    1.8992 H         1 <0>         0.0675
     24 H4         -1.9707   -1.3308   -1.4533 H         1 <0>         0.1347
     25 H5          0.0202   -2.5976   -2.1501 H         1 <0>         0.1368
     26 H6          2.0133   -2.6592   -0.7072 H         1 <0>         0.1382
     27 H7          0.2993    0.9152    2.4462 H         1 <0>         0.4073
     28 H8         -1.0830   -1.3577    6.2603 H         1 <0>         0.1863
     29 H9         -0.2069    3.7738    7.3388 H         1 <0>         0.4221
     30 H10        -0.9256    1.6437    9.3652 H         1 <0>         0.1438
     31 H11        -2.0344    4.5676    9.1242 H         1 <0>         0.0994
     32 H12        -2.4105    3.3733   10.4784 H         1 <0>         0.1075
     33 H13         0.0557    3.2559   11.0599 H         1 <0>         0.1091
     34 H14         0.4319    4.4502    9.7058 H         1 <0>         0.1000
@<TRIPOS>BOND
     1    1    2 1
     2    1   21 1
     3    1   22 1
     4    1   23 1
     5    2    7 ar
     6    2    3 ar
     7    3    4 ar
     8    3   24 1
     9    4    5 ar
    10    4   25 1
    11    5    6 ar
    12    5   26 1
    13    6    7 ar
    14    6   20 1
    15    7    8 1
    16    8    9 am
    17    8   27 1
    18    9   10 2
    19    9   11 1
    20   11   15 1
    21   11   12 2
    22   12   13 1
    23   12   28 1
    24   13   14 2
    25   14   15 1
    26   14   16 1
    27   16   17 1
    28   16   29 1
    29   17   19 1
    30   17   18 1
    31   17   30 1
    32   18   19 1
    33   18   31 1
    34   18   32 1
    35   19   33 1
    36   19   34 1
@<TRIPOS>MOLECULE
CHEMBL270057
   60    64     0     0     0
SMALL
USER_CHARGES

@<TRIPOS>ATOM
      1 C1          2.0610   -5.3033   -3.2835 C.3       1 <0>        -0.1156
      2 C2          1.4590   -4.5210   -2.1448 C.ar      1 <0>        -0.0647
      3 C3          1.2041   -3.1699   -2.2936 C.ar      1 <0>        -0.1362
      4 C4          0.6519   -2.4486   -1.2513 C.ar      1 <0>        -0.0946
      5 C5          0.3533   -3.0759   -0.0573 C.ar      1 <0>        -0.1383
      6 C6          0.6080   -4.4322    0.0953 C.ar      1 <0>         0.1590
      7 C7          1.1572   -5.1552   -0.9558 C.ar      1 <0>        -0.1502
      8 N1          0.3072   -5.0705    1.3037 N.am      1 <0>        -0.6754
      9 C8          0.2979   -4.3671    2.4533 C.2       1 <0>         0.7146
     10 O1          0.4191   -3.1575    2.4269 O.2       1 <0>        -0.5431
     11 N2          0.1543   -5.0045    3.6321 N.am      1 <0>        -0.5661
     12 C9         -0.0362   -6.4639    3.6915 C.3       1 <0>         0.0614
     13 C10        -1.1154   -6.7478    4.7461 C.3       1 <0>         0.0495
     14 O2         -0.6886   -6.2083    5.9992 O.3       1 <0>        -0.3036
     15 C11        -0.2476   -4.9229    6.0186 C.ar      1 <0>         0.1091
     16 C12         0.1871   -4.2996    4.8503 C.ar      1 <0>         0.1042
     17 C13         0.6438   -2.9922    4.8828 C.ar      1 <0>        -0.1003
     18 C14         0.6724   -2.3005    6.0796 C.ar      1 <0>        -0.1194
     19 C15         0.2439   -2.9158    7.2466 C.ar      1 <0>         0.0888
     20 C16        -0.2239   -4.2248    7.2159 C.ar      1 <0>        -0.1341
     21 O3          0.2719   -2.2338    8.4223 O.3       1 <0>        -0.2427
     22 C17         1.2751   -2.5066    9.2927 C.ar      1 <0>         0.1835
     23 C18         2.3282   -3.3294    8.9322 C.ar      1 <0>        -0.2625
     24 C19         3.3417   -3.5903    9.8450 C.ar      1 <0>         0.1639
     25 N3          3.3344   -3.0765   11.0528 N.ar      1 <0>        -0.4942
     26 C20         2.3481   -2.2733   11.4678 C.ar      1 <0>         0.1712
     27 C21         1.2806   -1.9551   10.5932 C.ar      1 <0>        -0.1073
     28 C22         0.2501   -1.1082   11.0295 C.ar      1 <0>        -0.1535
     29 C23         0.2880   -0.5939   12.2929 C.ar      1 <0>         0.1127
     30 C24         1.3465   -0.9030   13.1597 C.ar      1 <0>         0.1509
     31 C25         2.3560   -1.7323   12.7646 C.ar      1 <0>        -0.1799
     32 O4          1.3617   -0.3784   14.4131 O.3       1 <0>        -0.3001
     33 C26         2.4656   -0.7293   15.2500 C.3       1 <0>         0.0211
     34 O5         -0.7102    0.2270   12.7156 O.3       1 <0>        -0.3020
     35 C27        -1.7596    0.5042   11.7861 C.3       1 <0>         0.0228
     36 H1          1.2643   -5.7040   -3.9102 H         1 <0>         0.0725
     37 H2          2.6966   -4.6477   -3.8787 H         1 <0>         0.0693
     38 H3          2.6575   -6.1240   -2.8851 H         1 <0>         0.0664
     39 H4          1.4373   -2.6770   -3.2259 H         1 <0>         0.1237
     40 H5          0.4540   -1.3936   -1.3706 H         1 <0>         0.1272
     41 H6         -0.0774   -2.5118    0.7567 H         1 <0>         0.1550
     42 H7          1.3521   -6.2114   -0.8419 H         1 <0>         0.1240
     43 H8          0.1053   -6.0192    1.3139 H         1 <0>         0.4072
     44 H9         -0.3623   -6.8343    2.7196 H         1 <0>         0.1020
     45 H10         0.8976   -6.9476    3.9783 H         1 <0>         0.0980
     46 H11        -2.0520   -6.2777    4.4461 H         1 <0>         0.0756
     47 H12        -1.2587   -7.8241    4.8416 H         1 <0>         0.1303
     48 H13         0.9775   -2.5137    3.9739 H         1 <0>         0.1807
     49 H14         1.0288   -1.2814    6.1059 H         1 <0>         0.1412
     50 H15        -0.5576   -4.7017    8.1256 H         1 <0>         0.1447
     51 H16         2.3613   -3.7669    7.9454 H         1 <0>         0.1409
     52 H17         4.1583   -4.2340    9.5531 H         1 <0>         0.1622
     53 H18        -0.5686   -0.8646   10.3686 H         1 <0>         0.1492
     54 H19         3.1649   -1.9619   13.4423 H         1 <0>         0.1537
     55 H20         2.4898   -1.8107   15.3848 H         1 <0>         0.0606
     56 H21         3.3942   -0.4004   14.7835 H         1 <0>         0.0606
     57 H22         2.3547   -0.2446   16.2199 H         1 <0>         0.1054
     58 H23        -2.2478   -0.4277   11.5008 H         1 <0>         0.0580
     59 H24        -2.4886    1.1694   12.2489 H         1 <0>         0.1046
     60 H25        -1.3429    0.9823   10.8996 H         1 <0>         0.0583
@<TRIPOS>BOND
     1    1    2 1
     2    1   36 1
     3    1   37 1
     4    1   38 1
     5    2    7 ar
     6    2    3 ar
     7    3    4 ar
     8    3   39 1
     9    4    5 ar
    10    4   40 1
    11    5    6 ar
    12    5   41 1
    13    6    7 ar
    14    6    8 1
    15    7   42 1
    16    8    9 am
    17    8   43 1
    18    9   10 2
    19    9   11 am
    20   11   16 1
    21   11   12 1
    22   12   13 1
    23   12   44 1
    24   12   45 1
    25   13   14 1
    26   13   46 1
    27   13   47 1
    28   14   15 1
    29   15   20 ar
    30   15   16 ar
    31   16   17 ar
    32   17   18 ar
    33   17   48 1
    34   18   19 ar
    35   18   49 1
    36   19   20 ar
    37   19   21 1
    38   20   50 1
    39   21   22 1
    40   22   27 ar
    41   22   23 ar
    42   23   24 ar
    43   23   51 1
    44   24   25 ar
    45   24   52 1
    46   25   26 ar
    47   26   31 ar
    48   26   27 ar
    49   27   28 ar
    50   28   29 ar
    51   28   53 1
    52   29   30 ar
    53   29   34 1
    54   30   31 ar
    55   30   32 1
    56   31   54 1
    57   32   33 1
    58   33   55 1
    59   33   56 1
    60   33   57 1
    61   34   35 1
    62   35   58 1
    63   35   59 1
    64   35   60 1
@<TRIPOS>MOLECULE
CHEMBL296185
   66    70     0     0     0
SMALL
USER_CHARGES

@<TRIPOS>ATOM
      1 C1          0.0361    0.2167   -0.8788 C.3       1 <0>         0.0815
      2 N1          0.4461   -0.9551   -0.1011 N.pl3     1 <0>        -1.1202
      3 S1          0.8925   -0.7819    1.4842 S.o2      1 <0>         2.6997
      4 O1          1.2044   -2.0830    1.9628 O.2       1 <0>        -0.9566
      5 O2          1.8243    0.2900    1.5290 O.2       1 <0>        -0.9532
      6 C2         -0.5330   -0.2473    2.3713 C.ar      1 <0>        -0.6980
      7 C3         -0.7968    1.1058    2.5057 C.ar      1 <0>         0.0096
      8 C4         -1.9090    1.5402    3.1975 C.ar      1 <0>        -0.1537
      9 C5         -2.7791    0.6183    3.7693 C.ar      1 <0>         0.1950
     10 C6         -2.5088   -0.7500    3.6312 C.ar      1 <0>        -0.1112
     11 C7         -1.3880   -1.1775    2.9265 C.ar      1 <0>         0.0331
     12 C8         -3.5974   -1.4631    4.3354 C.2       1 <0>        -0.2161
     13 C9         -3.7580   -2.8289    4.4701 C.2       1 <0>         0.0935
     14 C10        -4.7700   -3.3406    5.3083 C.2       1 <0>        -0.0239
     15 C11        -5.4934   -4.5076    5.1039 C.2       1 <0>        -0.0766
     16 C12        -6.3801   -4.6266    6.1682 C.2       1 <0>        -0.1692
     17 C13        -6.1975   -3.5588    6.9932 C.2       1 <0>         0.0732
     18 N2         -5.2183   -2.7760    6.4850 N.pl3     1 <0>        -0.5036
     19 H1         -4.8880   -1.9542    6.8804 H         1 <0>         0.4187
     20 C14        -6.9842   -3.3330    8.2626 C.3       1 <0>        -0.0577
     21 C15        -8.2329   -4.2217    8.2231 C.3       1 <0>        -0.1126
     22 C16        -7.8289   -5.6576    7.8783 C.3       1 <0>        -0.1200
     23 C17        -7.3848   -5.7252    6.4120 C.3       1 <0>        -0.0463
     24 C18        -5.3461   -5.4634    3.9481 C.3       1 <0>        -0.0534
     25 C19        -4.3070   -6.5305    4.2980 C.3       1 <0>        -0.1079
     26 C20        -4.1574   -7.5008    3.1246 C.3       1 <0>         0.0543
     27 N3         -3.1597   -8.5254    3.4606 N.3       1 <0>        -0.5371
     28 C21        -1.8200   -7.9339    3.5896 C.3       1 <0>         0.0142
     29 C22        -0.8244   -9.0229    3.9978 C.3       1 <0>         0.0622
     30 O3         -0.8594  -10.0791    3.0342 O.3       1 <0>        -0.3856
     31 C23        -2.1491  -10.6784    2.8833 C.3       1 <0>         0.0627
     32 C24        -3.1582   -9.6061    2.4639 C.3       1 <0>         0.0173
     33 C25        -4.4697   -0.4051    4.8610 C.2       1 <0>         0.5582
     34 O4         -5.4885   -0.5727    5.5077 O.2       1 <0>        -0.5038
     35 N4         -3.9477    0.7804    4.5032 N.am      1 <0>        -0.6510
     36 H2          0.8553    0.9350   -0.9129 H         1 <0>         0.0705
     37 H3         -0.2193   -0.0913   -1.8927 H         1 <0>         0.0847
     38 H4         -0.8327    0.6784   -0.4096 H         1 <0>         0.0603
     39 H5          0.4562   -1.8324   -0.5147 H         1 <0>         0.4204
     40 H6         -0.1253    1.8279    2.0651 H         1 <0>         0.1499
     41 H7         -2.1039    2.5980    3.2953 H         1 <0>         0.1395
     42 H8         -1.1856   -2.2328    2.8181 H         1 <0>         0.1453
     43 H9         -3.1085   -3.5045    3.9334 H         1 <0>         0.1527
     44 H10        -6.3727   -3.5975    9.1253 H         1 <0>         0.0800
     45 H11        -7.2807   -2.2862    8.3294 H         1 <0>         0.0767
     46 H12        -8.7209   -4.2058    9.1976 H         1 <0>         0.0713
     47 H13        -8.9217   -3.8466    7.4661 H         1 <0>         0.0678
     48 H14        -7.0058   -5.9680    8.5219 H         1 <0>         0.0646
     49 H15        -8.6799   -6.3212    8.0312 H         1 <0>         0.0674
     50 H16        -8.2473   -5.5852    5.7603 H         1 <0>         0.0681
     51 H17        -6.9260   -6.6934    6.2116 H         1 <0>         0.0718
     52 H18        -6.3048   -5.9417    3.7478 H         1 <0>         0.0767
     53 H19        -5.0211   -4.9161    3.0633 H         1 <0>         0.0673
     54 H20        -3.3483   -6.0521    4.4984 H         1 <0>         0.0624
     55 H21        -4.6320   -7.0777    5.1829 H         1 <0>         0.0753
     56 H22        -5.1161   -7.9792    2.9242 H         1 <0>         0.0770
     57 H23        -3.8324   -6.9536    2.2397 H         1 <0>         0.0355
     58 H24        -1.5182   -7.5043    2.6344 H         1 <0>         0.0437
     59 H25        -1.8384   -7.1538    4.3507 H         1 <0>         0.0892
     60 H26         0.1798   -8.6010    4.0391 H         1 <0>         0.0987
     61 H27        -1.0956   -9.4153    4.9779 H         1 <0>         0.0597
     62 H28        -2.1030  -11.4538    2.1186 H         1 <0>         0.0980
     63 H29        -2.4589  -11.1188    3.8310 H         1 <0>         0.0599
     64 H30        -4.1533  -10.0466    2.4032 H         1 <0>         0.0863
     65 H31        -2.8778   -9.2033    1.4907 H         1 <0>         0.0428
     66 H32        -4.3369    1.6398    4.7288 H         1 <0>         0.4210
@<TRIPOS>BOND
     1    1    2 1
     2    1   36 1
     3    1   37 1
     4    1   38 1
     5    2    3 1
     6    2   39 1
     7    3    4 2
     8    3    5 2
     9    3    6 1
    10    6   11 ar
    11    6    7 ar
    12    7    8 ar
    13    7   40 1
    14    8    9 ar
    15    8   41 1
    16    9   35 1
    17    9   10 ar
    18   10   11 ar
    19   10   12 1
    20   11   42 1
    21   12   13 2
    22   12   33 1
    23   13   14 1
    24   13   43 1
    25   14   18 1
    26   14   15 2
    27   15   16 1
    28   15   24 1
    29   16   23 1
    30   16   17 2
    31   17   18 1
    32   17   20 1
    33   18   19 1
    34   20   21 1
    35   20   44 1
    36   20   45 1
    37   21   22 1
    38   21   46 1
    39   21   47 1
    40   22   23 1
    41   22   48 1
    42   22   49 1
    43   23   50 1
    44   23   51 1
    45   24   25 1
    46   24   52 1
    47   24   53 1
    48   25   26 1
    49   25   54 1
    50   25   55 1
    51   26   27 1
    52   26   56 1
    53   26   57 1
    54   27   32 1
    55   27   28 1
    56   28   29 1
    57   28   58 1
    58   28   59 1
    59   29   30 1
    60   29   60 1
    61   29   61 1
    62   30   31 1
    63   31   32 1
    64   31   62 1
    65   31   63 1
    66   32   64 1
    67   32   65 1
    68   33   34 2
    69   33   35 am
    70   35   66 1
@<TRIPOS>MOLECULE
CHEMBL296185__1
   67    71     0     0     0
SMALL
USER_CHARGES

@<TRIPOS>ATOM
      1 C1          0.7445    0.2189    0.4763 C.3       1 <0>         0.0797
      2 N1         -0.1157   -0.9656    0.4190 N.pl3     1 <0>        -1.1197
      3 S1         -1.7144   -0.8092    0.0164 S.o2      1 <0>         2.7007
      4 O1         -2.2645   -2.1194    0.0212 O.2       1 <0>        -0.9614
      5 O2         -2.2356    0.2388    0.8222 O.2       1 <0>        -0.9478
      6 C2         -1.7787   -0.2421   -1.6506 C.ar      1 <0>        -0.6995
      7 C3         -1.7843    1.1168   -1.9192 C.ar      1 <0>         0.0173
      8 C4         -1.8344    1.5765   -3.2194 C.ar      1 <0>        -0.1514
      9 C5         -1.8804    0.6748   -4.2770 C.ar      1 <0>         0.2006
     10 C6         -1.8746   -0.6994   -4.0013 C.ar      1 <0>        -0.1242
     11 C7         -1.8177   -1.1525   -2.6871 C.ar      1 <0>         0.0366
     12 C8         -1.9294   -1.3874   -5.3102 C.2       1 <0>        -0.1877
     13 C9         -1.9445   -2.7492   -5.5439 C.2       1 <0>         0.0653
     14 C10        -2.1567   -3.2383   -6.8494 C.2       1 <0>        -0.0076
     15 C11        -1.6000   -4.3860   -7.3969 C.2       1 <0>        -0.1072
     16 C12        -2.0768   -4.4864   -8.6990 C.2       1 <0>        -0.1663
     17 C13        -2.8992   -3.4265   -8.9321 C.2       1 <0>         0.0759
     18 N2         -2.9605   -2.6668   -7.8145 N.pl3     1 <0>        -0.4998
     19 H1         -3.4808   -1.8549   -7.7097 H         1 <0>         0.4221
     20 C14        -3.6089   -3.1855  -10.2434 C.3       1 <0>        -0.0618
     21 C15        -2.9368   -4.0424  -11.3225 C.3       1 <0>        -0.1146
     22 C16        -2.8178   -5.4867  -10.8290 C.3       1 <0>        -0.1213
     23 C17        -1.7687   -5.5603   -9.7128 C.3       1 <0>        -0.0446
     24 C18        -0.6578   -5.3412   -6.7106 C.3       1 <0>        -0.0434
     25 C19        -1.4635   -6.4352   -6.0071 C.3       1 <0>        -0.1447
     26 C20        -0.5069   -7.4049   -5.3104 C.3       1 <0>        -0.0117
     27 N3         -1.2804   -8.4554   -4.6350 N.4       1 <0>        -0.3856
     28 C21        -2.0805   -7.8582   -3.5569 C.3       1 <0>        -0.0493
     29 C22        -2.8857   -8.9546   -2.8549 C.3       1 <0>         0.0358
     30 O3         -1.9894   -9.9505   -2.3542 O.3       1 <0>        -0.3564
     31 C23        -1.1703  -10.5455   -3.3646 C.3       1 <0>         0.0353
     32 C24        -0.3619   -9.4521   -4.0675 C.3       1 <0>        -0.0435
     33 C25        -1.9651   -0.3097   -6.3070 C.2       1 <0>         0.5565
     34 O4         -2.0135   -0.4539   -7.5158 O.2       1 <0>        -0.4990
     35 N4         -1.9345    0.8636   -5.6524 N.am      1 <0>        -0.6499
     36 H2          1.7550   -0.0791    0.7558 H         1 <0>         0.0864
     37 H3          0.7651    0.7006   -0.5013 H         1 <0>         0.0608
     38 H4          0.3534    0.9165    1.2169 H         1 <0>         0.0729
     39 H5          0.2511   -1.8414    0.6170 H         1 <0>         0.4192
     40 H6         -1.7495    1.8233   -1.1031 H         1 <0>         0.1534
     41 H7         -1.8382    2.6385   -3.4158 H         1 <0>         0.1435
     42 H8         -1.8086   -2.2122   -2.4788 H         1 <0>         0.1430
     43 H9         -1.7937   -3.4391   -4.7267 H         1 <0>         0.1499
     44 H10        -4.6575   -3.4682  -10.1505 H         1 <0>         0.0823
     45 H11        -3.5348   -2.1318  -10.5125 H         1 <0>         0.0805
     46 H12        -3.5372   -4.0176  -12.2319 H         1 <0>         0.0754
     47 H13        -1.9429   -3.6474  -11.5329 H         1 <0>         0.0695
     48 H14        -3.7817   -5.8199  -10.4443 H         1 <0>         0.0643
     49 H15        -2.5146   -6.1293  -11.6556 H         1 <0>         0.0698
     50 H16        -0.7755   -5.3964  -10.1309 H         1 <0>         0.0707
     51 H17        -1.8094   -6.5391   -9.2347 H         1 <0>         0.0642
     52 H18         0.0023   -5.7946   -7.4500 H         1 <0>         0.0855
     53 H19        -0.0624   -4.7991   -5.9759 H         1 <0>         0.0787
     54 H20        -2.1236   -5.9818   -5.2677 H         1 <0>         0.0870
     55 H21        -2.0589   -6.9772   -6.7419 H         1 <0>         0.0907
     56 H22         0.1532   -7.8583   -6.0498 H         1 <0>         0.1341
     57 H23         0.0885   -6.8629   -4.5757 H         1 <0>         0.1316
     58 H24        -1.4188   -7.3759   -2.8374 H         1 <0>         0.1404
     59 H25        -2.7623   -7.1187   -3.9768 H         1 <0>         0.1438
     60 H26        -3.4469   -8.5208   -2.0273 H         1 <0>         0.1424
     61 H27        -3.5762   -9.4101   -3.5647 H         1 <0>         0.0807
     62 H28        -0.4901  -11.2631   -2.9058 H         1 <0>         0.1416
     63 H29        -1.8021  -11.0554   -4.0918 H         1 <0>         0.0807
     64 H30         0.2320   -9.8958   -4.8665 H         1 <0>         0.1425
     65 H31         0.2991   -8.9691   -3.3478 H         1 <0>         0.1390
     66 H32        -1.9488    1.7316   -6.0851 H         1 <0>         0.4250
     67 H33        -1.8929   -8.9027   -5.3005 H         1 <0>         0.4229
@<TRIPOS>BOND
     1    1    2 1
     2    1   36 1
     3    1   37 1
     4    1   38 1
     5    2    3 1
     6    2   39 1
     7    3    4 2
     8    3    5 2
     9    3    6 1
    10    6   11 ar
    11    6    7 ar
    12    7    8 ar
    13    7   40 1
    14    8    9 ar
    15    8   41 1
    16    9   35 1
    17    9   10 ar
    18   10   11 ar
    19   10   12 1
    20   11   42 1
    21   12   13 2
    22   12   33 1
    23   13   14 1
    24   13   43 1
    25   14   18 1
    26   14   15 2
    27   15   16 1
    28   15   24 1
    29   16   23 1
    30   16   17 2
    31   17   18 1
    32   17   20 1
    33   18   19 1
    34   20   21 1
    35   20   44 1
    36   20   45 1
    37   21   22 1
    38   21   46 1
    39   21   47 1
    40   22   23 1
    41   22   48 1
    42   22   49 1
    43   23   50 1
    44   23   51 1
    45   24   25 1
    46   24   52 1
    47   24   53 1
    48   25   26 1
    49   25   54 1
    50   25   55 1
    51   26   27 1
    52   26   56 1
    53   26   57 1
    54   27   32 1
    55   27   28 1
    56   27   67 1
    57   28   29 1
    58   28   58 1
    59   28   59 1
    60   29   30 1
    61   29   60 1
    62   29   61 1
    63   30   31 1
    64   31   32 1
    65   31   62 1
    66   31   63 1
    67   32   64 1
    68   32   65 1
    69   33   34 2
    70   33   35 am
    71   35   66 1
@<TRIPOS>MOLECULE
CHEMBL47202
   53    57     0     0     0
SMALL
USER_CHARGES

@<TRIPOS>ATOM
      1 C1          3.3370    1.3633    3.5653 C.ar      1 <0>        -0.1494
      2 C2          3.4192   -0.0168    3.5450 C.ar      1 <0>        -0.0834
      3 C3          3.5025   -0.6873    2.3401 C.ar      1 <0>        -0.1961
      4 C4          3.5032    0.0255    1.1495 C.ar      1 <0>         0.1188
      5 C5          3.4202    1.4104    1.1728 C.ar      1 <0>        -0.1430
      6 C6          3.3375    2.0760    2.3804 C.ar      1 <0>        -0.0796
      7 O1          3.5855   -0.6316   -0.0370 O.3       1 <0>        -0.2599
      8 C7          3.6573   -1.9885   -0.0113 C.ar      1 <0>         0.0930
      9 C8          2.4934   -2.7445   -0.0465 C.ar      1 <0>        -0.1166
     10 C9          2.5628   -4.1217   -0.0205 C.ar      1 <0>        -0.0925
     11 C10         3.8037   -4.7546    0.0407 C.ar      1 <0>        -0.0210
     12 C11         4.9707   -3.9925    0.0755 C.ar      1 <0>        -0.1108
     13 C12         4.8946   -2.6157    0.0443 C.ar      1 <0>        -0.1160
     14 C13         3.8820   -6.2349    0.0693 C.2       1 <0>        -0.0734
     15 C14         3.1900   -7.0680    0.8846 C.2       1 <0>         0.0367
     16 N1          3.5310   -8.3656    0.6127 N.pl3     1 <0>        -0.4588
     17 C15         4.4590   -8.4116   -0.3923 C.ar      1 <0>         0.3543
     18 C16         4.7196   -7.0869   -0.7844 C.ar      1 <0>        -0.2577
     19 C17         5.6424   -6.8580   -1.8136 C.ar      1 <0>         0.4996
     20 N2          6.2315   -7.9083   -2.3789 N.ar      1 <0>        -0.5946
     21 C18         5.9559   -9.1375   -1.9825 C.ar      1 <0>         0.3762
     22 N3          5.1023   -9.3977   -1.0159 N.ar      1 <0>        -0.5793
     23 N4          5.9333   -5.5718   -2.2318 N.pl3     1 <0>        -0.8251
     24 C19         2.9816   -9.5372    1.2994 C.3       1 <0>         0.1325
     25 C20         1.4621   -9.5745    1.1126 C.3       1 <0>        -0.1610
     26 C21         0.8860  -10.7549    1.8977 C.3       1 <0>        -0.0018
     27 N5          1.2016  -10.6000    3.3228 N.4       1 <0>        -0.5074
     28 C22         2.6560  -10.6354    3.5176 C.3       1 <0>        -0.0018
     29 C23         3.3002   -9.4505    2.7948 C.3       1 <0>        -0.1613
     30 H1          3.2678    1.8854    4.5083 H         1 <0>         0.1274
     31 H2          3.4186   -0.5710    4.4719 H         1 <0>         0.1254
     32 H3          3.5673   -1.7652    2.3248 H         1 <0>         0.1249
     33 H4          3.4209    1.9675    0.2475 H         1 <0>         0.1344
     34 H5          3.2732    3.1539    2.3991 H         1 <0>         0.1343
     35 H6          1.5325   -2.2536   -0.0939 H         1 <0>         0.1375
     36 H7          1.6570   -4.7092   -0.0472 H         1 <0>         0.1324
     37 H8          5.9333   -4.4797    0.1229 H         1 <0>         0.1339
     38 H9          5.7983   -2.0248    0.0675 H         1 <0>         0.1389
     39 H10         2.4781   -6.7556    1.6344 H         1 <0>         0.1777
     40 H11         6.4563   -9.9625   -2.4676 H         1 <0>         0.2043
     41 H12         5.4964   -4.8146   -1.8115 H         1 <0>         0.4131
     42 H13         6.5741   -5.4271   -2.9455 H         1 <0>         0.4126
     43 H14         3.4233  -10.4432    0.8845 H         1 <0>         0.1245
     44 H15         1.0272   -8.6454    1.4810 H         1 <0>         0.0969
     45 H16         1.2282   -9.6923    0.0546 H         1 <0>         0.1210
     46 H17        -0.1957  -10.7845    1.7668 H         1 <0>         0.1418
     47 H18         1.3213  -11.6834    1.5285 H         1 <0>         0.1369
     48 H19         0.8406   -9.7172    3.6522 H         1 <0>         0.4290
     49 H20         2.8811  -10.5769    4.5824 H         1 <0>         0.1417
     50 H21         3.0536  -11.5665    3.1137 H         1 <0>         0.1369
     51 H22         4.3803   -9.4796    2.9391 H         1 <0>         0.1208
     52 H23         2.9035   -8.5188    3.1980 H         1 <0>         0.0969
     53 H24         0.7751  -11.3511    3.8443 H         1 <0>         0.4364
@<TRIPOS>BOND
     1    1    6 ar
     2    1    2 ar
     3    1   30 1
     4    2    3 ar
     5    2   31 1
     6    3    4 ar
     7    3   32 1
     8    4    5 ar
     9    4    7 1
    10    5    6 ar
    11    5   33 1
    12    6   34 1
    13    7    8 1
    14    8   13 ar
    15    8    9 ar
    16    9   10 ar
    17    9   35 1
    18   10   11 ar
    19   10   36 1
    20   11   12 ar
    21   11   14 1
    22   12   13 ar
    23   12   37 1
    24   13   38 1
    25   14   18 1
    26   14   15 2
    27   15   16 1
    28   15   39 1
    29   16   17 1
    30   16   24 1
    31   17   22 ar
    32   17   18 ar
    33   18   19 ar
    34   19   20 ar
    35   19   23 1
    36   20   21 ar
    37   21   22 ar
    38   21   40 1
    39   23   41 1
    40   23   42 1
    41   24   29 1
    42   24   25 1
    43   24   43 1
    44   25   26 1
    45   25   44 1
    46   25   45 1
    47   26   27 1
    48   26   46 1
    49   26   47 1
    50   27   28 1
    51   27   48 1
    52   27   53 1
    53   28   29 1
    54   28   49 1
    55   28   50 1
    56   29   51 1
    57   29   52 1
@<TRIPOS>MOLECULE
CHEMBL246356
   58    61     0     0     0
SMALL
USER_CHARGES

@<TRIPOS>ATOM
      1 C1          0.0035    1.3061    0.5052 C.3       1 <0>        -0.1131
      2 C2          0.0250   -0.1859    0.2938 C.ar      1 <0>        -0.0852
      3 C3         -0.0187   -0.7021   -0.9875 C.ar      1 <0>        -0.0905
      4 C4          0.0012   -2.0689   -1.1854 C.ar      1 <0>        -0.1330
      5 C5          0.0653   -2.9287   -0.0957 C.ar      1 <0>         0.1487
      6 C6          0.1092   -2.4123    1.1916 C.ar      1 <0>        -0.1092
      7 C7          0.0943   -1.0396    1.3858 C.ar      1 <0>         0.1075
      8 O1          0.1424   -0.5305    2.6449 O.3       1 <0>        -0.2016
      9 C8          1.3186   -0.0158    3.0785 C.ar      1 <0>         0.3715
     10 C9          1.4399    0.4231    4.4037 C.ar      1 <0>        -0.1289
     11 C10         2.6612    0.9504    4.8300 C.ar      1 <0>         0.0136
     12 C11         3.7030    1.0164    3.9198 C.ar      1 <0>        -0.2194
     13 C12         3.5068    0.5632    2.6286 C.ar      1 <0>         0.1689
     14 N1          2.3457    0.0640    2.2500 N.ar      1 <0>        -0.5292
     15 C13         0.2933    0.3301    5.3359 C.ar      1 <0>         0.4532
     16 N2         -0.8655   -0.1793    4.9199 N.ar      1 <0>        -0.5675
     17 C14        -1.8886   -0.2628    5.7516 C.ar      1 <0>         0.3835
     18 N3         -1.7676    0.1579    6.9985 N.ar      1 <0>        -0.6083
     19 C15        -0.6138    0.6680    7.4223 C.ar      1 <0>         0.5990
     20 N4          0.4198    0.7497    6.5914 N.ar      1 <0>        -0.6042
     21 N5         -0.4893    1.1069    8.7247 N.pl3     1 <0>        -0.6894
     22 C16        -1.6278    1.0114    9.6418 C.3       1 <0>         0.1023
     23 N6          0.0850   -4.3126   -0.2960 N.am      1 <0>        -0.6659
     24 C17         0.7989   -5.1029    0.5300 C.2       1 <0>         0.5613
     25 O2          1.5085   -4.6067    1.3832 O.2       1 <0>        -0.5041
     26 C18         0.7190   -6.5731    0.3982 C.ar      1 <0>        -0.1009
     27 C19        -0.0907   -7.1455   -0.5846 C.ar      1 <0>        -0.1035
     28 C20        -0.1629   -8.5180   -0.7046 C.ar      1 <0>        -0.0831
     29 C21         0.5648   -9.3301    0.1459 C.ar      1 <0>        -0.1609
     30 C22         1.3726   -8.7701    1.1261 C.ar      1 <0>         0.0971
     31 C23         1.4569   -7.3935    1.2518 C.ar      1 <0>        -0.0660
     32 O3          2.0851   -9.5732    1.9596 O.3       1 <0>        -0.2988
     33 C24         1.9549  -10.9835    1.7699 C.3       1 <0>         0.3947
     34 C25         2.8242  -11.7180    2.7925 C.3       1 <0>         0.2744
     35 F1          2.6967  -13.0988    2.6068 F         1 <0>        -0.1668
     36 F2          4.1618  -11.3459    2.6205 F         1 <0>        -0.1650
     37 F3          0.6173  -11.3557    1.9418 F         1 <0>        -0.1674
     38 F4          2.3702  -11.3205    0.4771 F         1 <0>        -0.1697
     39 H1          1.0246    1.6874    0.5079 H         1 <0>         0.0731
     40 H2         -0.5588    1.7790   -0.2998 H         1 <0>         0.0700
     41 H3         -0.4708    1.5309    1.4605 H         1 <0>         0.0653
     42 H4         -0.0689   -0.0354   -1.8357 H         1 <0>         0.1338
     43 H5         -0.0334   -2.4696   -2.1877 H         1 <0>         0.1308
     44 H6          0.1590   -3.0783    2.0403 H         1 <0>         0.1385
     45 H7          2.7898    1.2984    5.8442 H         1 <0>         0.1553
     46 H8          4.6605    1.4187    4.2161 H         1 <0>         0.1468
     47 H9          4.3192    0.6147    1.9189 H         1 <0>         0.1662
     48 H10        -2.8267   -0.6759    5.4114 H         1 <0>         0.2079
     49 H11         0.3519    1.4786    9.0330 H         1 <0>         0.4181
     50 H12        -1.3421    1.4038   10.6178 H         1 <0>         0.0803
     51 H13        -2.4620    1.5914    9.2471 H         1 <0>         0.0633
     52 H14        -1.9264   -0.0320    9.7429 H         1 <0>         0.0632
     53 H15        -0.4152   -4.7036   -1.0293 H         1 <0>         0.4123
     54 H16        -0.6606   -6.5142   -1.2503 H         1 <0>         0.1353
     55 H17        -0.7899   -8.9596   -1.4651 H         1 <0>         0.1426
     56 H18         0.5040  -10.4038    0.0474 H         1 <0>         0.1395
     57 H19         2.0885   -6.9565    2.0111 H         1 <0>         0.1528
     58 H20         2.5006  -11.4555    3.7997 H         1 <0>         0.1608
@<TRIPOS>BOND
     1    1    2 1
     2    1   39 1
     3    1   40 1
     4    1   41 1
     5    2    7 ar
     6    2    3 ar
     7    3    4 ar
     8    3   42 1
     9    4    5 ar
    10    4   43 1
    11    5    6 ar
    12    5   23 1
    13    6    7 ar
    14    6   44 1
    15    7    8 1
    16    8    9 1
    17    9   14 ar
    18    9   10 ar
    19   10   11 ar
    20   10   15 1
    21   11   12 ar
    22   11   45 1
    23   12   13 ar
    24   12   46 1
    25   13   14 ar
    26   13   47 1
    27   15   20 ar
    28   15   16 ar
    29   16   17 ar
    30   17   18 ar
    31   17   48 1
    32   18   19 ar
    33   19   20 ar
    34   19   21 1
    35   21   22 1
    36   21   49 1
    37   22   50 1
    38   22   51 1
    39   22   52 1
    40   23   24 am
    41   23   53 1
    42   24   25 2
    43   24   26 1
    44   26   31 ar
    45   26   27 ar
    46   27   28 ar
    47   27   54 1
    48   28   29 ar
    49   28   55 1
    50   29   30 ar
    51   29   56 1
    52   30   31 ar
    53   30   32 1
    54   31   57 1
    55   32   33 1
    56   33   34 1
    57   33   37 1
    58   33   38 1
    59   34   35 1
    60   34   36 1
    61   34   58 1
@<TRIPOS>MOLECULE
CHEMBL43773
   80    86     0     0     0
SMALL
USER_CHARGES

@<TRIPOS>ATOM
      1 C1         -2.3142    1.7127   -0.0930 C.3       1 <0>        -0.0458
      2 N1         -2.1819    0.2526   -0.1856 N.4       1 <0>        -0.3885
      3 C2         -3.4815   -0.3748    0.0883 C.3       1 <0>        -0.0021
      4 C3         -3.3486   -1.8949   -0.0265 C.3       1 <0>         0.0199
      5 N2         -2.3435   -2.3700    0.9350 N.3       1 <0>        -0.5345
      6 C4         -1.0428   -1.7315    0.6887 C.3       1 <0>         0.0195
      7 C5         -1.1948   -0.2127    0.7976 C.3       1 <0>        -0.0021
      8 C6         -2.2274   -3.8338    0.8950 C.3       1 <0>         0.0859
      9 C7         -3.5774   -4.4623    1.2459 C.3       1 <0>        -0.1099
     10 C8         -3.4564   -5.9870    1.2043 C.3       1 <0>        -0.1276
     11 C9         -2.4033   -6.4428    2.2163 C.3       1 <0>         0.1740
     12 C10        -1.0532   -5.8143    1.8654 C.3       1 <0>        -0.1266
     13 C11        -1.1742   -4.2896    1.9070 C.3       1 <0>        -0.1113
     14 N3         -2.2874   -7.9026    2.1764 N.pl3     1 <0>        -0.3777
     15 C12        -2.5217   -8.7400    3.2262 C.ar      1 <0>         0.3782
     16 C13        -2.2977  -10.0499    2.7623 C.ar      1 <0>        -0.3248
     17 C14        -1.9121   -9.9308    1.3563 C.2       1 <0>         0.1779
     18 N4         -1.9251   -8.6541    1.0535 N.2       1 <0>        -0.2383
     19 C15        -1.5750  -11.0467    0.4410 C.ar      1 <0>        -0.0072
     20 C16        -2.3553  -12.2025    0.4324 C.ar      1 <0>        -0.1216
     21 C17        -2.0419  -13.2408   -0.4197 C.ar      1 <0>        -0.0978
     22 C18        -0.9494  -13.1382   -1.2707 C.ar      1 <0>         0.1392
     23 C19        -0.1658  -11.9849   -1.2656 C.ar      1 <0>         0.1063
     24 C20        -0.4807  -10.9398   -0.4166 C.ar      1 <0>        -0.1515
     25 O1          0.9043  -11.8859   -2.0987 O.3       1 <0>        -0.3151
     26 C21         1.6624  -10.6759   -2.0400 C.3       1 <0>         0.0278
     27 N5         -0.6343  -14.1934   -2.1338 N.am      1 <0>        -0.6483
     28 C22        -1.5713  -15.1099   -2.4478 C.2       1 <0>         0.6062
     29 O2         -2.7162  -14.9663   -2.0618 O.2       1 <0>        -0.4924
     30 C23        -1.2101  -16.2826   -3.2562 C.2       1 <0>        -0.0419
     31 C24        -2.0685  -17.2641   -3.6367 C.2       1 <0>        -0.0909
     32 C25        -1.2774  -18.2131   -4.4193 C.ar      1 <0>        -0.1503
     33 C26        -1.5656  -19.4113   -5.0773 C.ar      1 <0>        -0.0554
     34 C27        -0.5720  -20.0770   -5.7377 C.ar      1 <0>        -0.1362
     35 C28         0.7207  -19.5709   -5.7583 C.ar      1 <0>        -0.0748
     36 C29         1.0256  -18.3909   -5.1152 C.ar      1 <0>        -0.1134
     37 C30         0.0310  -17.6952   -4.4373 C.ar      1 <0>         0.0759
     38 O3          0.0231  -16.5440   -3.7376 O.3       1 <0>        -0.1859
     39 C31        -2.4720  -11.1179    3.6574 C.ar      1 <0>         0.5209
     40 N6         -2.8414  -10.8423    4.9045 N.ar      1 <0>        -0.6025
     41 C32        -3.0409   -9.5970    5.2976 C.ar      1 <0>         0.3909
     42 N7         -2.8903   -8.5660    4.4952 N.ar      1 <0>        -0.5789
     43 N8         -2.2653  -12.4224    3.2520 N.pl3     1 <0>        -0.8248
     44 H1         -1.3502    2.1785   -0.2975 H         1 <0>         0.1240
     45 H2         -3.0467    2.0581   -0.8225 H         1 <0>         0.1241
     46 H3         -2.6438    1.9848    0.9097 H         1 <0>         0.1233
     47 H4         -3.8060   -0.1135    1.0956 H         1 <0>         0.1380
     48 H5         -4.2162   -0.0188   -0.6338 H         1 <0>         0.1354
     49 H6         -4.3093   -2.3615    0.1913 H         1 <0>         0.1268
     50 H7         -3.0373   -2.1575   -1.0376 H         1 <0>         0.0605
     51 H8         -0.3214   -2.0788    1.4282 H         1 <0>         0.1272
     52 H9         -0.6936   -1.9913   -0.3106 H         1 <0>         0.0603
     53 H10        -0.2342    0.2636    0.6012 H         1 <0>         0.1352
     54 H11        -1.5310    0.0478    1.8012 H         1 <0>         0.1380
     55 H12        -1.9296   -4.1475   -0.1055 H         1 <0>         0.0567
     56 H13        -3.8752   -4.1486    2.2464 H         1 <0>         0.0823
     57 H14        -4.3277   -4.1376    0.5250 H         1 <0>         0.0718
     58 H15        -4.4183   -6.4347    1.4543 H         1 <0>         0.0768
     59 H16        -3.1587   -6.3007    0.2038 H         1 <0>         0.0785
     60 H17        -2.7011   -6.1291    3.2168 H         1 <0>         0.1124
     61 H18        -0.3029   -6.1390    2.5863 H         1 <0>         0.0763
     62 H19        -0.7554   -6.1280    0.8649 H         1 <0>         0.0779
     63 H20        -0.2124   -3.8419    1.6570 H         1 <0>         0.0719
     64 H21        -1.4720   -3.9759    2.9075 H         1 <0>         0.0826
     65 H22        -3.2053  -12.2848    1.0936 H         1 <0>         0.1399
     66 H23        -2.6471  -14.1353   -0.4249 H         1 <0>         0.1711
     67 H24         0.1226  -10.0440   -0.4145 H         1 <0>         0.1400
     68 H25         2.4850  -10.7276   -2.7532 H         1 <0>         0.1055
     69 H26         1.0190   -9.8317   -2.2881 H         1 <0>         0.0578
     70 H27         2.0613  -10.5455   -1.0341 H         1 <0>         0.0582
     71 H28         0.2584  -14.2652   -2.5063 H         1 <0>         0.4251
     72 H29        -3.1218  -17.3305   -3.4075 H         1 <0>         0.1738
     73 H30        -2.5693  -19.8097   -5.0637 H         1 <0>         0.1341
     74 H31        -0.7935  -21.0034   -6.2468 H         1 <0>         0.1357
     75 H32         1.4961  -20.1081   -6.2841 H         1 <0>         0.1410
     76 H33         2.0348  -18.0071   -5.1382 H         1 <0>         0.1372
     77 H34        -3.3406   -9.4182    6.3196 H         1 <0>         0.2062
     78 H35        -1.8140  -12.6037    2.4127 H         1 <0>         0.4151
     79 H36        -2.5713  -13.1569    3.8067 H         1 <0>         0.4130
     80 H37        -1.8764    0.0009   -1.1137 H         1 <0>         0.4221
@<TRIPOS>BOND
     1    1    2 1
     2    1   44 1
     3    1   45 1
     4    1   46 1
     5    2    7 1
     6    2    3 1
     7    2   80 1
     8    3    4 1
     9    3   47 1
    10    3   48 1
    11    4    5 1
    12    4   49 1
    13    4   50 1
    14    5    6 1
    15    5    8 1
    16    6    7 1
    17    6   51 1
    18    6   52 1
    19    7   53 1
    20    7   54 1
    21    8   13 1
    22    8    9 1
    23    8   55 1
    24    9   10 1
    25    9   56 1
    26    9   57 1
    27   10   11 1
    28   10   58 1
    29   10   59 1
    30   11   12 1
    31   11   14 1
    32   11   60 1
    33   12   13 1
    34   12   61 1
    35   12   62 1
    36   13   63 1
    37   13   64 1
    38   14   18 1
    39   14   15 1
    40   15   42 ar
    41   15   16 ar
    42   16   17 1
    43   16   39 ar
    44   17   18 2
    45   17   19 1
    46   19   24 ar
    47   19   20 ar
    48   20   21 ar
    49   20   65 1
    50   21   22 ar
    51   21   66 1
    52   22   23 ar
    53   22   27 1
    54   23   24 ar
    55   23   25 1
    56   24   67 1
    57   25   26 1
    58   26   68 1
    59   26   69 1
    60   26   70 1
    61   27   28 am
    62   27   71 1
    63   28   29 2
    64   28   30 1
    65   30   38 1
    66   30   31 2
    67   31   32 1
    68   31   72 1
    69   32   37 ar
    70   32   33 ar
    71   33   34 ar
    72   33   73 1
    73   34   35 ar
    74   34   74 1
    75   35   36 ar
    76   35   75 1
    77   36   37 ar
    78   36   76 1
    79   37   38 1
    80   39   40 ar
    81   39   43 1
    82   40   41 ar
    83   41   42 ar
    84   41   77 1
    85   43   78 1
    86   43   79 1
@<TRIPOS>MOLECULE
CHEMBL43773__1
   80    86     0     0     0
SMALL
USER_CHARGES

@<TRIPOS>ATOM
      1 C1         -2.3519    1.6495   -0.2360 C.3       1 <0>         0.0194
      2 N1         -2.1932    0.1910   -0.3107 N.3       1 <0>        -0.5434
      3 C2         -3.4829   -0.4892   -0.1262 C.3       1 <0>         0.0253
      4 C3         -3.2847   -1.9998   -0.2700 C.3       1 <0>        -0.0067
      5 N2         -2.3184   -2.4647    0.7338 N.4       1 <0>        -0.3838
      6 C4         -1.0286   -1.7948    0.5215 C.3       1 <0>        -0.0066
      7 C5         -1.2081   -0.2826    0.6719 C.3       1 <0>         0.0254
      8 C6         -2.1420   -3.9176    0.6072 C.3       1 <0>         0.0238
      9 C7         -3.4851   -4.6157    0.8301 C.3       1 <0>        -0.1365
     10 C8         -3.3014   -6.1289    0.6983 C.3       1 <0>        -0.1261
     11 C9         -2.2950   -6.6135    1.7438 C.3       1 <0>         0.1715
     12 C10        -0.9519   -5.9153    1.5209 C.3       1 <0>        -0.1253
     13 C11        -1.1356   -4.4021    1.6528 C.3       1 <0>        -0.1364
     14 N3         -2.1191   -8.0624    1.6176 N.pl3     1 <0>        -0.3833
     15 C12        -2.3838   -8.9757    2.5942 C.ar      1 <0>         0.3798
     16 C13        -2.0800  -10.2429    2.0622 C.ar      1 <0>        -0.3250
     17 C14        -1.6140  -10.0167    0.6942 C.2       1 <0>         0.1878
     18 N4         -1.6591   -8.7239    0.4740 N.2       1 <0>        -0.2426
     19 C15        -1.1775  -11.0563   -0.2677 C.ar      1 <0>        -0.0128
     20 C16        -1.9093  -12.2360   -0.4005 C.ar      1 <0>        -0.1207
     21 C17        -1.5034  -13.2033   -1.2959 C.ar      1 <0>        -0.0982
     22 C18        -0.3658  -13.0053   -2.0672 C.ar      1 <0>         0.1424
     23 C19         0.3697  -11.8278   -1.9379 C.ar      1 <0>         0.1064
     24 C20        -0.0378  -10.8535   -1.0451 C.ar      1 <0>        -0.1505
     25 O1          1.4841  -11.6354   -2.6930 O.3       1 <0>        -0.3143
     26 C21         2.1885  -10.4059   -2.5084 C.3       1 <0>         0.0279
     27 N5          0.0432  -13.9887   -2.9746 N.am      1 <0>        -0.6490
     28 C22        -0.8357  -14.9150   -3.4060 C.2       1 <0>         0.6071
     29 O2         -2.0069  -14.8382   -3.0853 O.2       1 <0>        -0.4923
     30 C23        -0.3794  -16.0175   -4.2635 C.2       1 <0>        -0.0435
     31 C24        -1.1733  -17.0013   -4.7604 C.2       1 <0>        -0.0895
     32 C25        -0.2987  -17.8672   -5.5504 C.ar      1 <0>        -0.1507
     33 C26        -0.4983  -19.0283   -6.3013 C.ar      1 <0>        -0.0552
     34 C27         0.5596  -19.6127   -6.9385 C.ar      1 <0>        -0.1359
     35 C28         1.8300  -19.0607   -6.8441 C.ar      1 <0>        -0.0741
     36 C29         2.0478  -17.9162   -6.1081 C.ar      1 <0>        -0.1135
     37 C30         0.9868  -17.3031   -5.4517 C.ar      1 <0>         0.0764
     38 O3          0.8904  -16.2021   -4.6812 O.3       1 <0>        -0.1860
     39 C31        -2.2663  -11.3739    2.8737 C.ar      1 <0>         0.5225
     40 N6         -2.7220  -11.1954    4.1099 N.ar      1 <0>        -0.6005
     41 C32        -2.9945   -9.9869    4.5688 C.ar      1 <0>         0.3939
     42 N7         -2.8360   -8.9001    3.8457 N.ar      1 <0>        -0.5819
     43 N8         -1.9835  -12.6401    2.3992 N.pl3     1 <0>        -0.8227
     44 H1         -1.3952    2.1300   -0.4408 H         1 <0>         0.0843
     45 H2         -3.0863    1.9733   -0.9735 H         1 <0>         0.0840
     46 H3         -2.6918    1.9274    0.7616 H         1 <0>         0.0396
     47 H4         -3.8728   -0.2665    0.8670 H         1 <0>         0.0606
     48 H5         -4.1886   -0.1416   -0.8807 H         1 <0>         0.1239
     49 H6         -4.2375   -2.5072   -0.1195 H         1 <0>         0.1375
     50 H7         -2.9077   -2.2233   -1.2680 H         1 <0>         0.1381
     51 H8         -0.3088   -2.1504    1.2588 H         1 <0>         0.1372
     52 H9         -0.6631   -2.0195   -0.4806 H         1 <0>         0.1380
     53 H10        -0.2541    0.2158    0.4997 H         1 <0>         0.1237
     54 H11        -1.5605   -0.0565    1.6782 H         1 <0>         0.0606
     55 H12        -1.7713   -4.1530   -0.3904 H         1 <0>         0.1416
     56 H13        -3.8558   -4.3803    1.8278 H         1 <0>         0.0917
     57 H14        -4.2021   -4.2705    0.0853 H         1 <0>         0.0965
     58 H15        -4.2582   -6.6263    0.8571 H         1 <0>         0.0906
     59 H16        -2.9307   -6.3643   -0.2993 H         1 <0>         0.0899
     60 H17        -2.6657   -6.3780    2.7415 H         1 <0>         0.1148
     61 H18        -0.2349   -6.2606    2.2658 H         1 <0>         0.0901
     62 H19        -0.5812   -6.1508    0.5233 H         1 <0>         0.0893
     63 H20        -0.1788   -3.9048    1.4939 H         1 <0>         0.0963
     64 H21        -1.5063   -4.1667    2.6504 H         1 <0>         0.0918
     65 H22        -2.7943  -12.3923    0.1985 H         1 <0>         0.1397
     66 H23        -2.0712  -14.1164   -1.3972 H         1 <0>         0.1717
     67 H24         0.5282   -9.9390   -0.9470 H         1 <0>         0.1400
     68 H25         2.5196  -10.3288   -1.4727 H         1 <0>         0.0580
     69 H26         3.0547  -10.3806   -3.1696 H         1 <0>         0.1063
     70 H27         1.5286   -9.5704   -2.7420 H         1 <0>         0.0577
     71 H28         0.9592  -14.0037   -3.2933 H         1 <0>         0.4256
     72 H29        -2.2352  -17.1202   -4.6035 H         1 <0>         0.1738
     73 H30        -1.4843  -19.4622   -6.3774 H         1 <0>         0.1343
     74 H31         0.4066  -20.5103   -7.5192 H         1 <0>         0.1360
     75 H32         2.6568  -19.5338   -7.3529 H         1 <0>         0.1413
     76 H33         3.0405  -17.4961   -6.0421 H         1 <0>         0.1374
     77 H34        -3.3631   -9.8876    5.5790 H         1 <0>         0.2072
     78 H35        -1.4749  -12.7489    1.5804 H         1 <0>         0.4159
     79 H36        -2.2937  -13.4205    2.8848 H         1 <0>         0.4143
     80 H37        -2.6621   -2.2472    1.6572 H         1 <0>         0.4187
@<TRIPOS>BOND
     1    1    2 1
     2    1   44 1
     3    1   45 1
     4    1   46 1
     5    2    7 1
     6    2    3 1
     7    3    4 1
     8    3   47 1
     9    3   48 1
    10    4    5 1
    11    4   49 1
    12    4   50 1
    13    5    6 1
    14    5    8 1
    15    5   80 1
    16    6    7 1
    17    6   51 1
    18    6   52 1
    19    7   53 1
    20    7   54 1
    21    8   13 1
    22    8    9 1
    23    8   55 1
    24    9   10 1
    25    9   56 1
    26    9   57 1
    27   10   11 1
    28   10   58 1
    29   10   59 1
    30   11   12 1
    31   11   14 1
    32   11   60 1
    33   12   13 1
    34   12   61 1
    35   12   62 1
    36   13   63 1
    37   13   64 1
    38   14   18 1
    39   14   15 1
    40   15   42 ar
    41   15   16 ar
    42   16   17 1
    43   16   39 ar
    44   17   18 2
    45   17   19 1
    46   19   24 ar
    47   19   20 ar
    48   20   21 ar
    49   20   65 1
    50   21   22 ar
    51   21   66 1
    52   22   23 ar
    53   22   27 1
    54   23   24 ar
    55   23   25 1
    56   24   67 1
    57   25   26 1
    58   26   68 1
    59   26   69 1
    60   26   70 1
    61   27   28 am
    62   27   71 1
    63   28   29 2
    64   28   30 1
    65   30   38 1
    66   30   31 2
    67   31   32 1
    68   31   72 1
    69   32   37 ar
    70   32   33 ar
    71   33   34 ar
    72   33   73 1
    73   34   35 ar
    74   34   74 1
    75   35   36 ar
    76   35   75 1
    77   36   37 ar
    78   36   76 1
    79   37   38 1
    80   39   40 ar
    81   39   43 1
    82   40   41 ar
    83   41   42 ar
    84   41   77 1
    85   43   78 1
    86   43   79 1
@<TRIPOS>MOLECULE
CHEMBL248080
   72    77     0     0     0
SMALL
USER_CHARGES

@<TRIPOS>ATOM
      1 C1         -0.1169    1.1840    0.1384 C.ar      1 <0>        -0.1130
      2 C2          1.0272    1.9371   -0.0567 C.ar      1 <0>        -0.1116
      3 C3          2.2614    1.3223   -0.1055 C.ar      1 <0>        -0.0930
      4 C4          2.3542   -0.0620    0.0424 C.ar      1 <0>        -0.0210
      5 C5          1.1967   -0.8159    0.2389 C.ar      1 <0>        -0.1153
      6 C6         -0.0315   -0.1891    0.2857 C.ar      1 <0>        -0.1188
      7 C7          3.6750   -0.7281   -0.0094 C.2       1 <0>        -0.0963
      8 C8          4.1674   -1.6420   -1.0481 C.ar      1 <0>        -0.2725
      9 C9          3.6468   -2.1704   -2.2370 C.ar      1 <0>         0.4955
     10 N1          4.4094   -2.9987   -2.9462 N.ar      1 <0>        -0.5862
     11 C10         5.6254   -3.3149   -2.5406 C.ar      1 <0>         0.3733
     12 N2          6.1512   -2.8413   -1.4309 N.ar      1 <0>        -0.5374
     13 C11         5.4658   -2.0054   -0.6545 C.ar      1 <0>         0.3309
     14 O1          5.7338   -1.3772    0.5031 O.3       1 <0>        -0.1624
     15 C12         4.6934   -0.6157    0.8975 C.2       1 <0>         0.0952
     16 C13         4.6574    0.2089    2.1201 C.ar      1 <0>        -0.0355
     17 C14         3.5520    0.1518    2.9729 C.ar      1 <0>        -0.0772
     18 C15         3.5252    0.9257    4.1142 C.ar      1 <0>        -0.1135
     19 C16         4.5895    1.7572    4.4156 C.ar      1 <0>        -0.0557
     20 C17         5.6876    1.8189    3.5756 C.ar      1 <0>        -0.0957
     21 C18         5.7308    1.0465    2.4338 C.ar      1 <0>        -0.0849
     22 C19         4.5524    2.6000    5.6643 C.3       1 <0>         0.0887
     23 N3          5.1409    1.8478    6.7805 N.3       1 <0>        -0.5314
     24 C20         4.3116    0.6843    7.1270 C.3       1 <0>         0.0133
     25 C21         4.9901   -0.1025    8.2514 C.3       1 <0>         0.0628
     26 O2          5.2037    0.7626    9.3701 O.3       1 <0>        -0.3841
     27 C22         6.0081    1.9060    9.0684 C.3       1 <0>         0.0626
     28 C23         5.3399    2.7131    7.9522 C.3       1 <0>         0.0172
     29 N4          2.3729   -1.8399   -2.6622 N.pl3     1 <0>        -0.7055
     30 C24         1.8473   -2.4033   -3.9082 C.3       1 <0>         0.1298
     31 C25         0.4289   -1.8811   -4.1456 C.3       1 <0>         0.0417
     32 N5         -0.0981   -2.4460   -5.3951 N.3       1 <0>        -0.5334
     33 C26        -0.2811   -3.8997   -5.2799 C.3       1 <0>         0.0160
     34 C27        -0.7734   -4.4564   -6.6175 C.3       1 <0>        -0.0025
     35 N6         -2.0435   -3.8128   -6.9783 N.4       1 <0>        -0.5087
     36 C28        -1.8394   -2.3645   -7.1137 C.3       1 <0>        -0.0024
     37 C29        -1.3559   -1.7904   -5.7802 C.3       1 <0>         0.0246
     38 H1         -1.0802    1.6704    0.1803 H         1 <0>         0.1253
     39 H2          0.9540    3.0085   -0.1714 H         1 <0>         0.1282
     40 H3          3.1537    1.9112   -0.2582 H         1 <0>         0.1250
     41 H4          1.2619   -1.8877    0.3537 H         1 <0>         0.1218
     42 H5         -0.9282   -0.7714    0.4380 H         1 <0>         0.1247
     43 H6          6.2130   -3.9906   -3.1444 H         1 <0>         0.2134
     44 H7          2.7205   -0.4964    2.7388 H         1 <0>         0.1262
     45 H8          2.6714    0.8829    4.7742 H         1 <0>         0.1273
     46 H9          6.5146    2.4701    3.8171 H         1 <0>         0.1329
     47 H10         6.5905    1.0920    1.7817 H         1 <0>         0.1305
     48 H11         5.1224    3.5149    5.5023 H         1 <0>         0.0898
     49 H12         3.5190    2.8529    5.9014 H         1 <0>         0.0487
     50 H13         3.3306    1.0229    7.4603 H         1 <0>         0.0440
     51 H14         4.1986    0.0444    6.2519 H         1 <0>         0.0890
     52 H15         4.3516   -0.9336    8.5507 H         1 <0>         0.0987
     53 H16         5.9479   -0.4866    7.9003 H         1 <0>         0.0606
     54 H17         6.1057    2.5274    9.9585 H         1 <0>         0.1010
     55 H18         6.9954    1.5802    8.7410 H         1 <0>         0.0615
     56 H19         5.9774    3.5541    7.6795 H         1 <0>         0.0892
     57 H20         4.3753    3.0841    8.2987 H         1 <0>         0.0456
     58 H21         1.8275   -1.2351   -2.1353 H         1 <0>         0.4139
     59 H22         2.4874   -2.1071   -4.7393 H         1 <0>         0.0841
     60 H23         1.8267   -3.4906   -3.8351 H         1 <0>         0.0706
     61 H24        -0.2111   -2.1772   -3.3146 H         1 <0>         0.0544
     62 H25         0.4496   -0.7937   -4.2188 H         1 <0>         0.0954
     63 H26         0.6689   -4.3663   -5.0192 H         1 <0>         0.1283
     64 H27        -1.0165   -4.1133   -4.5042 H         1 <0>         0.0634
     65 H28        -0.0316   -4.2546   -7.3902 H         1 <0>         0.1418
     66 H29        -0.9234   -5.5325   -6.5301 H         1 <0>         0.1401
     67 H30        -2.3741   -4.1890   -7.8542 H         1 <0>         0.4353
     68 H31        -1.0920   -2.1734   -7.8838 H         1 <0>         0.1413
     69 H32        -2.7796   -1.8897   -7.3942 H         1 <0>         0.1400
     70 H33        -2.1090   -1.9693   -5.0128 H         1 <0>         0.0630
     71 H34        -1.1901   -0.7182   -5.8846 H         1 <0>         0.1251
     72 H35        -2.7268   -3.9899   -6.2573 H         1 <0>         0.4260
@<TRIPOS>BOND
     1    1    6 ar
     2    1    2 ar
     3    1   38 1
     4    2    3 ar
     5    2   39 1
     6    3    4 ar
     7    3   40 1
     8    4    5 ar
     9    4    7 1
    10    5    6 ar
    11    5   41 1
    12    6   42 1
    13    7   15 2
    14    7    8 1
    15    8   13 ar
    16    8    9 ar
    17    9   10 ar
    18    9   29 1
    19   10   11 ar
    20   11   12 ar
    21   11   43 1
    22   12   13 ar
    23   13   14 1
    24   14   15 1
    25   15   16 1
    26   16   21 ar
    27   16   17 ar
    28   17   18 ar
    29   17   44 1
    30   18   19 ar
    31   18   45 1
    32   19   20 ar
    33   19   22 1
    34   20   21 ar
    35   20   46 1
    36   21   47 1
    37   22   23 1
    38   22   48 1
    39   22   49 1
    40   23   28 1
    41   23   24 1
    42   24   25 1
    43   24   50 1
    44   24   51 1
    45   25   26 1
    46   25   52 1
    47   25   53 1
    48   26   27 1
    49   27   28 1
    50   27   54 1
    51   27   55 1
    52   28   56 1
    53   28   57 1
    54   29   30 1
    55   29   58 1
    56   30   31 1
    57   30   59 1
    58   30   60 1
    59   31   32 1
    60   31   61 1
    61   31   62 1
    62   32   37 1
    63   32   33 1
    64   33   34 1
    65   33   63 1
    66   33   64 1
    67   34   35 1
    68   34   65 1
    69   34   66 1
    70   35   36 1
    71   35   67 1
    72   35   72 1
    73   36   37 1
    74   36   68 1
    75   36   69 1
    76   37   70 1
    77   37   71 1
@<TRIPOS>MOLECULE
CHEMBL248079
   66    71     0     0     0
SMALL
USER_CHARGES

@<TRIPOS>ATOM
      1 C1         -0.9397   -0.2216    1.3326 C.3       1 <0>         0.0944
      2 N1          0.0542    0.0661    0.2954 N.pl3     1 <0>        -0.6368
      3 C2         -0.1714    1.1255   -0.7024 C.3       1 <0>         0.0859
      4 C3          0.2869    0.5850   -2.0644 C.3       1 <0>         0.0452
      5 O1          1.6646    0.2150   -1.9729 O.3       1 <0>        -0.3099
      6 C4          2.0416   -0.5696   -0.9282 C.ar      1 <0>         0.0591
      7 C5          1.2556   -0.6542    0.2225 C.ar      1 <0>         0.1672
      8 C6          1.6516   -1.4488    1.2890 C.ar      1 <0>        -0.1635
      9 C7          2.8309   -2.1609    1.2206 C.ar      1 <0>        -0.0652
     10 C8          3.6269   -2.0815    0.0751 C.ar      1 <0>        -0.0628
     11 C9          3.2215   -1.2866   -1.0056 C.ar      1 <0>        -0.0633
     12 C10         4.8877   -2.8422   -0.0014 C.2       1 <0>         0.1095
     13 C11         6.0914   -2.3372   -0.4136 C.2       1 <0>        -0.1034
     14 C12         7.0424   -3.4526   -0.3216 C.ar      1 <0>        -0.2693
     15 C13         8.4083   -3.6200   -0.5855 C.ar      1 <0>         0.4939
     16 N2          8.9486   -4.8181   -0.3781 N.ar      1 <0>        -0.5866
     17 C14         8.2168   -5.8237    0.0651 C.ar      1 <0>         0.3703
     18 N3          6.9317   -5.7087    0.3247 N.ar      1 <0>        -0.5373
     19 C15         6.3020   -4.5495    0.1487 C.ar      1 <0>         0.3281
     20 O2          5.0341   -4.1410    0.3292 O.3       1 <0>        -0.1634
     21 N4          9.1753   -2.5667   -1.0503 N.pl3     1 <0>        -0.7062
     22 C16        10.6019   -2.7626   -1.3201 C.3       1 <0>         0.1304
     23 C17        11.2111   -1.4513   -1.8203 C.3       1 <0>         0.0415
     24 N5         12.6415   -1.6477   -2.0909 N.3       1 <0>        -0.5334
     25 C18        12.8428   -2.5720   -3.2157 C.3       1 <0>         0.0160
     26 C19        14.3419   -2.7958   -3.4263 C.3       1 <0>        -0.0025
     27 N6         14.9947   -1.5097   -3.7042 N.4       1 <0>        -0.5088
     28 C20        14.8061   -0.6058   -2.5618 C.3       1 <0>        -0.0023
     29 C21        13.3108   -0.3639   -2.3441 C.3       1 <0>         0.0245
     30 C22         6.3752   -0.9548   -0.8595 C.ar      1 <0>        -0.0184
     31 C23         6.7130   -0.7032   -2.1898 C.ar      1 <0>        -0.1152
     32 C24         6.9765    0.5877   -2.5992 C.ar      1 <0>        -0.1185
     33 C25         6.9064    1.6316   -1.6939 C.ar      1 <0>        -0.1133
     34 C26         6.5720    1.3888   -0.3735 C.ar      1 <0>        -0.1123
     35 C27         6.3006    0.1032    0.0472 C.ar      1 <0>        -0.0921
     36 H1         -0.5790   -1.0314    1.9668 H         1 <0>         0.0798
     37 H2         -1.1012    0.6700    1.9384 H         1 <0>         0.0593
     38 H3         -1.8784   -0.5176    0.8642 H         1 <0>         0.0594
     39 H4         -1.2313    1.3769   -0.7418 H         1 <0>         0.0982
     40 H5          0.4098    2.0097   -0.4408 H         1 <0>         0.0753
     41 H6         -0.3090   -0.2881   -2.3303 H         1 <0>         0.0691
     42 H7          0.1657    1.3576   -2.8237 H         1 <0>         0.1196
     43 H8          1.0357   -1.5095    2.1741 H         1 <0>         0.1361
     44 H9          3.1387   -2.7786    2.0513 H         1 <0>         0.1324
     45 H10         3.8350   -1.2236   -1.8922 H         1 <0>         0.1344
     46 H11         8.6926   -6.7807    0.2208 H         1 <0>         0.2122
     47 H12         8.7686   -1.6985   -1.1976 H         1 <0>         0.4141
     48 H13        11.1059   -3.0713   -0.4043 H         1 <0>         0.0835
     49 H14        10.7253   -3.5339   -2.0804 H         1 <0>         0.0700
     50 H15        10.7071   -1.1426   -2.7362 H         1 <0>         0.0546
     51 H16        11.0877   -0.6800   -1.0600 H         1 <0>         0.0955
     52 H17        12.3604   -3.5242   -2.9947 H         1 <0>         0.1284
     53 H18        12.4083   -2.1450   -4.1196 H         1 <0>         0.0634
     54 H19        14.7734   -3.2355   -2.5271 H         1 <0>         0.1417
     55 H20        14.4937   -3.4699   -4.2692 H         1 <0>         0.1399
     56 H21        15.9811   -1.6591   -3.8552 H         1 <0>         0.4351
     57 H22        15.2352   -1.0568   -1.6671 H         1 <0>         0.1412
     58 H23        15.3021    0.3435   -2.7639 H         1 <0>         0.1397
     59 H24        12.8841    0.0995   -3.2336 H         1 <0>         0.0630
     60 H25        13.1700    0.2949   -1.4872 H         1 <0>         0.1251
     61 H26         6.7685   -1.5173   -2.8974 H         1 <0>         0.1213
     62 H27         7.2385    0.7837   -3.6285 H         1 <0>         0.1238
     63 H28         7.1139    2.6403   -2.0193 H         1 <0>         0.1240
     64 H29         6.5193    2.2079    0.3284 H         1 <0>         0.1267
     65 H30         6.0349   -0.0845    1.0771 H         1 <0>         0.1249
     66 H31        14.5871   -1.0973   -4.5300 H         1 <0>         0.4260
@<TRIPOS>BOND
     1    1    2 1
     2    1   36 1
     3    1   37 1
     4    1   38 1
     5    2    7 1
     6    2    3 1
     7    3    4 1
     8    3   39 1
     9    3   40 1
    10    4    5 1
    11    4   41 1
    12    4   42 1
    13    5    6 1
    14    6   11 ar
    15    6    7 ar
    16    7    8 ar
    17    8    9 ar
    18    8   43 1
    19    9   10 ar
    20    9   44 1
    21   10   11 ar
    22   10   12 1
    23   11   45 1
    24   12   20 1
    25   12   13 2
    26   13   14 1
    27   13   30 1
    28   14   19 ar
    29   14   15 ar
    30   15   16 ar
    31   15   21 1
    32   16   17 ar
    33   17   18 ar
    34   17   46 1
    35   18   19 ar
    36   19   20 1
    37   21   22 1
    38   21   47 1
    39   22   23 1
    40   22   48 1
    41   22   49 1
    42   23   24 1
    43   23   50 1
    44   23   51 1
    45   24   29 1
    46   24   25 1
    47   25   26 1
    48   25   52 1
    49   25   53 1
    50   26   27 1
    51   26   54 1
    52   26   55 1
    53   27   28 1
    54   27   56 1
    55   27   66 1
    56   28   29 1
    57   28   57 1
    58   28   58 1
    59   29   59 1
    60   29   60 1
    61   30   35 ar
    62   30   31 ar
    63   31   32 ar
    64   31   61 1
    65   32   33 ar
    66   32   62 1
    67   33   34 ar
    68   33   63 1
    69   34   35 ar
    70   34   64 1
    71   35   65 1
@<TRIPOS>MOLECULE
CHEMBL384822
   39    41     0     0     0
SMALL
USER_CHARGES

@<TRIPOS>ATOM
      1 C1         -2.3214    0.0990    0.8124 C.3       1 <0>        -0.1151
      2 C2         -1.1014   -0.6763    0.3861 C.ar      1 <0>        -0.0617
      3 C3         -1.0988   -1.3543   -0.8176 C.ar      1 <0>        -0.1114
      4 C4          0.0196   -2.0660   -1.2100 C.ar      1 <0>        -0.0945
      5 C5          1.1396   -2.1025   -0.3993 C.ar      1 <0>        -0.1129
      6 C6          1.1438   -1.4271    0.8062 C.ar      1 <0>        -0.0202
      7 C7          0.0229   -0.7052    1.2000 C.ar      1 <0>         0.1405
      8 N1          0.0256   -0.0146    2.4166 N.am      1 <0>        -0.6807
      9 C8         -0.3544   -0.6409    3.5479 C.2       1 <0>         0.6255
     10 O1         -0.6124   -1.8306    3.5278 O.2       1 <0>        -0.5045
     11 C9         -0.4568    0.1087    4.7999 C.2       1 <0>        -0.3426
     12 C10        -0.8180   -0.3271    6.0673 C.2       1 <0>         0.1896
     13 N2         -0.8226    0.5773    7.0137 N.2       1 <0>        -0.5559
     14 C11        -0.5000    1.8344    6.7686 C.2       1 <0>         0.2671
     15 S1         -0.1443    1.8369    5.1236 S.3       1 <0>         0.2692
     16 N3         -0.4581    2.8950    7.6543 N.am      1 <0>        -0.6046
     17 C12        -0.1026    4.1209    7.2214 C.2       1 <0>         0.6130
     18 O2          0.1815    4.2941    6.0508 O.2       1 <0>        -0.4833
     19 C13        -0.0583    5.2449    8.1600 C.2       1 <0>        -0.2792
     20 C14         0.2719    6.5708    7.9214 C.2       1 <0>        -0.0418
     21 C15         0.2230    7.4037    9.0131 C.2       1 <0>        -0.1895
     22 C16        -0.1340    6.8920   10.2172 C.2       1 <0>        -0.2039
     23 S2         -0.4222    5.2667    9.9051 S.3       1 <0>         0.2250
     24 C17        -1.1853   -1.7632    6.3389 C.3       1 <0>        -0.0904
     25 Cl1         2.5495   -1.4735    1.8237 Cl        1 <0>        -0.0571
     26 H1         -2.2505    1.1211    0.4406 H         1 <0>         0.0772
     27 H2         -3.2140   -0.3750    0.4043 H         1 <0>         0.0742
     28 H3         -2.3820    0.1115    1.9007 H         1 <0>         0.0670
     29 H4         -1.9719   -1.3286   -1.4529 H         1 <0>         0.1348
     30 H5          0.0186   -2.5950   -2.1516 H         1 <0>         0.1368
     31 H6          2.0116   -2.6597   -0.7086 H         1 <0>         0.1382
     32 H7          0.3010    0.9150    2.4460 H         1 <0>         0.4084
     33 H8         -0.6846    2.7570    8.5873 H         1 <0>         0.4270
     34 H9          0.5500    6.9258    6.9400 H         1 <0>         0.1557
     35 H10         0.4658    8.4514    8.9137 H         1 <0>         0.1458
     36 H11        -0.2183    7.4116   11.1602 H         1 <0>         0.1953
     37 H12        -0.2899   -2.3219    6.6117 H         1 <0>         0.0840
     38 H13        -1.9037   -1.8059    7.1576 H         1 <0>         0.0768
     39 H14        -1.6278   -2.2006    5.4440 H         1 <0>         0.0979
@<TRIPOS>BOND
     1    1    2 1
     2    1   26 1
     3    1   27 1
     4    1   28 1
     5    2    7 ar
     6    2    3 ar
     7    3    4 ar
     8    3   29 1
     9    4    5 ar
    10    4   30 1
    11    5    6 ar
    12    5   31 1
    13    6    7 ar
    14    6   25 1
    15    7    8 1
    16    8    9 am
    17    8   32 1
    18    9   10 2
    19    9   11 1
    20   11   15 1
    21   11   12 2
    22   12   13 1
    23   12   24 1
    24   13   14 2
    25   14   15 1
    26   14   16 1
    27   16   17 am
    28   16   33 1
    29   17   18 2
    30   17   19 1
    31   19   23 1
    32   19   20 2
    33   20   21 1
    34   20   34 1
    35   21   22 2
    36   21   35 1
    37   22   23 1
    38   22   36 1
    39   24   37 1
    40   24   38 1
    41   24   39 1
@<TRIPOS>MOLECULE
CHEMBL248081
   73    78     0     0     0
SMALL
USER_CHARGES

@<TRIPOS>ATOM
      1 C1          0.4097    1.8340   -0.3860 C.ar      1 <0>        -0.1116
      2 C2          1.6680    2.4080   -0.4262 C.ar      1 <0>        -0.1113
      3 C3          2.7939    1.6162   -0.3326 C.ar      1 <0>        -0.0933
      4 C4          2.6616    0.2337   -0.1971 C.ar      1 <0>        -0.0252
      5 C5          1.3898   -0.3389   -0.1571 C.ar      1 <0>        -0.1147
      6 C6          0.2718    0.4639   -0.2518 C.ar      1 <0>        -0.1179
      7 C7          3.8653   -0.6217   -0.0966 C.2       1 <0>        -0.0871
      8 C8          4.3351   -1.6093   -1.0752 C.ar      1 <0>        -0.2745
      9 C9          3.8857   -2.0673   -2.3216 C.ar      1 <0>         0.4971
     10 N1          4.5949   -3.0075   -2.9411 N.ar      1 <0>        -0.5861
     11 C10         5.6935   -3.4967   -2.3964 C.ar      1 <0>         0.3755
     12 N2          6.1496   -3.0945   -1.2291 N.ar      1 <0>        -0.5379
     13 C11         5.5096   -2.1580   -0.5331 C.ar      1 <0>         0.3335
     14 O1          5.7301   -1.5648    0.6524 O.3       1 <0>        -0.1610
     15 C12         4.7758   -0.6520    0.9265 C.2       1 <0>         0.0861
     16 C13         4.7195    0.1811    2.1396 C.ar      1 <0>        -0.0134
     17 C14         3.5213    0.2988    2.8531 C.ar      1 <0>        -0.0808
     18 C15         3.4697    1.0713    3.9777 C.ar      1 <0>        -0.0651
     19 C16         4.6139    1.7450    4.4166 C.ar      1 <0>        -0.1046
     20 C17         5.8115    1.6278    3.7041 C.ar      1 <0>        -0.0919
     21 C18         5.8658    0.8509    2.5826 C.ar      1 <0>        -0.0904
     22 C19         4.5574    2.5802    5.6319 C.2       1 <0>         0.5577
     23 O2          4.0100    2.1604    6.6332 O.2       1 <0>        -0.5273
     24 N3          5.1126    3.8084    5.6320 N.am      1 <0>        -0.6035
     25 C20         5.8463    4.2982    4.4571 C.3       1 <0>         0.0889
     26 C21         5.2614    5.6510    4.0392 C.3       1 <0>        -0.1353
     27 C22         5.2839    6.6038    5.2365 C.3       1 <0>        -0.1227
     28 C23         4.4201    6.0312    6.3626 C.3       1 <0>        -0.1356
     29 C24         4.9903    4.6851    6.8046 C.3       1 <0>         0.1095
     30 N4          2.7351   -1.5558   -2.8923 N.pl3     1 <0>        -0.7047
     31 C25         2.2826   -2.0481   -4.1957 C.3       1 <0>         0.1294
     32 C26         0.9960   -1.3233   -4.5960 C.3       1 <0>         0.0416
     33 N5          0.5422   -1.8170   -5.9030 N.3       1 <0>        -0.5334
     34 C27         0.1322   -3.2260   -5.8205 C.3       1 <0>         0.0159
     35 C28        -0.2758   -3.7177   -7.2109 C.3       1 <0>        -0.0025
     36 N6         -1.3841   -2.8961   -7.7152 N.4       1 <0>        -0.5088
     37 C29        -0.9519   -1.4959   -7.8154 C.3       1 <0>        -0.0024
     38 C30        -0.5494   -0.9858   -6.4299 C.3       1 <0>         0.0246
     39 H1         -0.4686    2.4586   -0.4551 H         1 <0>         0.1258
     40 H2          1.7690    3.4781   -0.5315 H         1 <0>         0.1286
     41 H3          3.7755    2.0653   -0.3645 H         1 <0>         0.1254
     42 H4          1.2809   -1.4083   -0.0528 H         1 <0>         0.1227
     43 H5         -0.7131    0.0219   -0.2207 H         1 <0>         0.1255
     44 H6          6.2408   -4.2590   -2.9309 H         1 <0>         0.2138
     45 H7          2.6375   -0.2212    2.5140 H         1 <0>         0.1342
     46 H8          2.5450    1.1625    4.5281 H         1 <0>         0.1396
     47 H9          6.6949    2.1483    4.0436 H         1 <0>         0.1413
     48 H10         6.7918    0.7569    2.0349 H         1 <0>         0.1381
     49 H11         6.9003    4.4178    4.7082 H         1 <0>         0.0750
     50 H12         5.7422    3.5864    3.6383 H         1 <0>         0.0974
     51 H13         5.8578    6.0706    3.2290 H         1 <0>         0.0775
     52 H14         4.2338    5.5145    3.7021 H         1 <0>         0.0668
     53 H15         6.3089    6.7205    5.5886 H         1 <0>         0.0667
     54 H16         4.8909    7.5749    4.9353 H         1 <0>         0.0681
     55 H17         4.4177    6.7214    7.2062 H         1 <0>         0.0796
     56 H18         3.4004    5.8911    6.0037 H         1 <0>         0.0663
     57 H19         4.3214    4.2284    7.5341 H         1 <0>         0.0948
     58 H20         5.9728    4.8369    7.2514 H         1 <0>         0.0716
     59 H21         2.2275   -0.8709   -2.4296 H         1 <0>         0.4141
     60 H22         3.0534   -1.8595   -4.9429 H         1 <0>         0.0845
     61 H23         2.0916   -3.1194   -4.1331 H         1 <0>         0.0710
     62 H24         0.2252   -1.5119   -3.8488 H         1 <0>         0.0545
     63 H25         1.1870   -0.2520   -4.6586 H         1 <0>         0.0955
     64 H26         0.9645   -3.8259   -5.4523 H         1 <0>         0.1283
     65 H27        -0.7133   -3.3194   -5.1390 H         1 <0>         0.0636
     66 H28         0.5740   -3.6369   -7.8887 H         1 <0>         0.1418
     67 H29        -0.5938   -4.7584   -7.1494 H         1 <0>         0.1401
     68 H30        -1.6612   -3.2284   -8.6267 H         1 <0>         0.4354
     69 H31        -0.0986   -1.4265   -8.4901 H         1 <0>         0.1413
     70 H32        -1.7710   -0.8896   -8.2020 H         1 <0>         0.1400
     71 H33        -1.4062   -1.0423   -5.7585 H         1 <0>         0.0631
     72 H34        -0.2145    0.0487   -6.5065 H         1 <0>         0.1252
     73 H35        -2.1666   -2.9618   -7.0816 H         1 <0>         0.4260
@<TRIPOS>BOND
     1    1    6 ar
     2    1    2 ar
     3    1   39 1
     4    2    3 ar
     5    2   40 1
     6    3    4 ar
     7    3   41 1
     8    4    5 ar
     9    4    7 1
    10    5    6 ar
    11    5   42 1
    12    6   43 1
    13    7   15 2
    14    7    8 1
    15    8   13 ar
    16    8    9 ar
    17    9   10 ar
    18    9   30 1
    19   10   11 ar
    20   11   12 ar
    21   11   44 1
    22   12   13 ar
    23   13   14 1
    24   14   15 1
    25   15   16 1
    26   16   21 ar
    27   16   17 ar
    28   17   18 ar
    29   17   45 1
    30   18   19 ar
    31   18   46 1
    32   19   20 ar
    33   19   22 1
    34   20   21 ar
    35   20   47 1
    36   21   48 1
    37   22   23 2
    38   22   24 am
    39   24   29 1
    40   24   25 1
    41   25   26 1
    42   25   49 1
    43   25   50 1
    44   26   27 1
    45   26   51 1
    46   26   52 1
    47   27   28 1
    48   27   53 1
    49   27   54 1
    50   28   29 1
    51   28   55 1
    52   28   56 1
    53   29   57 1
    54   29   58 1
    55   30   31 1
    56   30   59 1
    57   31   32 1
    58   31   60 1
    59   31   61 1
    60   32   33 1
    61   32   62 1
    62   32   63 1
    63   33   38 1
    64   33   34 1
    65   34   35 1
    66   34   64 1
    67   34   65 1
    68   35   36 1
    69   35   66 1
    70   35   67 1
    71   36   37 1
    72   36   68 1
    73   36   73 1
    74   37   38 1
    75   37   69 1
    76   37   70 1
    77   38   71 1
    78   38   72 1
@<TRIPOS>MOLECULE
CHEMBL247468
   76    81     0     0     0
SMALL
USER_CHARGES

@<TRIPOS>ATOM
      1 C1         -0.1166    1.1845    0.1380 C.ar      1 <0>        -0.1106
      2 C2          1.0276    1.9376   -0.0570 C.ar      1 <0>        -0.1120
      3 C3          2.2617    1.3227   -0.1057 C.ar      1 <0>        -0.0946
      4 C4          2.3543   -0.0617    0.0422 C.ar      1 <0>        -0.0275
      5 C5          1.1967   -0.8155    0.2386 C.ar      1 <0>        -0.1146
      6 C6         -0.0314   -0.1886    0.2853 C.ar      1 <0>        -0.1170
      7 C7          3.6750   -0.7279   -0.0095 C.2       1 <0>        -0.0828
      8 C8          4.1675   -1.6419   -1.0482 C.ar      1 <0>        -0.2781
      9 C9          3.6470   -2.1702   -2.2371 C.ar      1 <0>         0.4982
     10 N1          4.4095   -2.9986   -2.9463 N.ar      1 <0>        -0.5839
     11 C10         5.6254   -3.3149   -2.5406 C.ar      1 <0>         0.3802
     12 N2          6.1512   -2.8413   -1.4308 N.ar      1 <0>        -0.5394
     13 C11         5.4657   -2.0054   -0.6545 C.ar      1 <0>         0.3359
     14 O1          5.7338   -1.3772    0.5032 O.3       1 <0>        -0.1645
     15 C12         4.6936   -0.6156    0.8977 C.2       1 <0>         0.0781
     16 C13         4.6576    0.2088    2.1200 C.ar      1 <0>        -0.0491
     17 C14         3.5515    0.1508    2.9723 C.ar      1 <0>        -0.0393
     18 C15         3.5226    0.9225    4.1136 C.ar      1 <0>        -0.1398
     19 C16         4.5904    1.7572    4.4175 C.ar      1 <0>         0.1316
     20 C17         5.6918    1.8182    3.5735 C.ar      1 <0>        -0.2007
     21 C18         5.7321    1.0462    2.4327 C.ar      1 <0>        -0.0456
     22 O2          4.5573    2.5166    5.5436 O.3       1 <0>        -0.3219
     23 C19         5.6885    3.3526    5.7958 C.3       1 <0>         0.0259
     24 C20         5.4709    4.1259    7.0979 C.3       1 <0>         0.0011
     25 N3          5.4245    3.1844    8.2247 N.4       1 <0>        -0.3918
     26 C21         4.2308    2.3207    8.1025 C.3       1 <0>        -0.0019
     27 C22         3.7504    2.1014    9.5588 C.3       1 <0>        -0.1458
     28 C23         4.0350    3.4876   10.1947 C.3       1 <0>        -0.1421
     29 C24         5.3354    3.9318    9.4925 C.3       1 <0>        -0.0137
     30 N4          2.3729   -1.8395   -2.6624 N.pl3     1 <0>        -0.7035
     31 C25         1.8473   -2.4028   -3.9085 C.3       1 <0>         0.1278
     32 C26         0.4290   -1.8804   -4.1460 C.3       1 <0>         0.0424
     33 N5         -0.0980   -2.4452   -5.3954 N.3       1 <0>        -0.5336
     34 C27        -0.2812   -3.8989   -5.2803 C.3       1 <0>         0.0165
     35 C28        -0.7735   -4.4556   -6.6180 C.3       1 <0>        -0.0028
     36 N6         -2.0435   -3.8118   -6.9788 N.4       1 <0>        -0.5089
     37 C29        -1.8392   -2.3635   -7.1142 C.3       1 <0>        -0.0027
     38 C30        -1.3557   -1.7895   -5.7806 C.3       1 <0>         0.0252
     39 H1         -1.0799    1.6711    0.1799 H         1 <0>         0.1270
     40 H2          0.9545    3.0090   -0.1716 H         1 <0>         0.1286
     41 H3          3.1541    1.9115   -0.2583 H         1 <0>         0.1241
     42 H4          1.2618   -1.8874    0.3534 H         1 <0>         0.1234
     43 H5         -0.9282   -0.7708    0.4376 H         1 <0>         0.1269
     44 H6          6.2130   -3.9906   -3.1443 H         1 <0>         0.2158
     45 H7          2.7206   -0.4976    2.7367 H         1 <0>         0.1388
     46 H8          2.6681    0.8786    4.7727 H         1 <0>         0.1407
     47 H9          6.5197    2.4689    3.8136 H         1 <0>         0.1361
     48 H10         6.5909    1.0909    1.7793 H         1 <0>         0.1381
     49 H11         6.5832    2.7363    5.8844 H         1 <0>         0.0888
     50 H12         5.8116    4.0556    4.9720 H         1 <0>         0.1113
     51 H13         6.2914    4.8282    7.2449 H         1 <0>         0.1509
     52 H14         4.5298    4.6730    7.0427 H         1 <0>         0.1411
     53 H15         3.4580    2.8216    7.5194 H         1 <0>         0.1370
     54 H16         4.4966    1.3686    7.6432 H         1 <0>         0.1333
     55 H17         2.6857    1.8696    9.5880 H         1 <0>         0.1161
     56 H18         4.3321    1.3204   10.0483 H         1 <0>         0.0975
     57 H19         3.2241    4.1837    9.9804 H         1 <0>         0.0987
     58 H20         4.1901    3.3940   11.2695 H         1 <0>         0.1134
     59 H21         6.1946    3.6990   10.1214 H         1 <0>         0.1336
     60 H22         5.3004    5.0023    9.2901 H         1 <0>         0.1324
     61 H23         1.8275   -1.2346   -2.1356 H         1 <0>         0.4134
     62 H24         2.4875   -2.1067   -4.7395 H         1 <0>         0.0858
     63 H25         1.8265   -3.4901   -3.8353 H         1 <0>         0.0724
     64 H26        -0.2112   -2.1765   -3.3149 H         1 <0>         0.0537
     65 H27         0.4498   -0.7931   -4.2191 H         1 <0>         0.0948
     66 H28         0.6687   -4.3657   -5.0196 H         1 <0>         0.1277
     67 H29        -1.0167   -4.1125   -4.5047 H         1 <0>         0.0634
     68 H30        -0.0316   -4.2538   -7.3906 H         1 <0>         0.1422
     69 H31        -0.9236   -5.5316   -6.5306 H         1 <0>         0.1408
     70 H32        -2.3742   -4.1880   -7.8547 H         1 <0>         0.4365
     71 H33        -1.0918   -2.1725   -7.8842 H         1 <0>         0.1417
     72 H34        -2.7794   -1.8886   -7.3946 H         1 <0>         0.1407
     73 H35        -2.1089   -1.9683   -5.0132 H         1 <0>         0.0630
     74 H36        -1.1898   -0.7173   -5.8849 H         1 <0>         0.1249
     75 H37        -2.7269   -3.9889   -6.2578 H         1 <0>         0.4261
     76 H38         6.2560    2.6129    8.2251 H         1 <0>         0.4251
@<TRIPOS>BOND
     1    1    6 ar
     2    1    2 ar
     3    1   39 1
     4    2    3 ar
     5    2   40 1
     6    3    4 ar
     7    3   41 1
     8    4    5 ar
     9    4    7 1
    10    5    6 ar
    11    5   42 1
    12    6   43 1
    13    7   15 2
    14    7    8 1
    15    8   13 ar
    16    8    9 ar
    17    9   10 ar
    18    9   30 1
    19   10   11 ar
    20   11   12 ar
    21   11   44 1
    22   12   13 ar
    23   13   14 1
    24   14   15 1
    25   15   16 1
    26   16   21 ar
    27   16   17 ar
    28   17   18 ar
    29   17   45 1
    30   18   19 ar
    31   18   46 1
    32   19   20 ar
    33   19   22 1
    34   20   21 ar
    35   20   47 1
    36   21   48 1
    37   22   23 1
    38   23   24 1
    39   23   49 1
    40   23   50 1
    41   24   25 1
    42   24   51 1
    43   24   52 1
    44   25   29 1
    45   25   26 1
    46   25   76 1
    47   26   27 1
    48   26   53 1
    49   26   54 1
    50   27   28 1
    51   27   55 1
    52   27   56 1
    53   28   29 1
    54   28   57 1
    55   28   58 1
    56   29   59 1
    57   29   60 1
    58   30   31 1
    59   30   61 1
    60   31   32 1
    61   31   62 1
    62   31   63 1
    63   32   33 1
    64   32   64 1
    65   32   65 1
    66   33   38 1
    67   33   34 1
    68   34   35 1
    69   34   66 1
    70   34   67 1
    71   35   36 1
    72   35   68 1
    73   35   69 1
    74   36   37 1
    75   36   70 1
    76   36   75 1
    77   37   38 1
    78   37   71 1
    79   37   72 1
    80   38   73 1
    81   38   74 1
@<TRIPOS>MOLECULE
CHEMBL312563
   32    34     0     0     0
SMALL
USER_CHARGES

@<TRIPOS>ATOM
      1 C1          0.0114    1.3019   -0.7279 C.ar      1 <0>        -0.1603
      2 C2          1.2011    2.0030   -0.7981 C.ar      1 <0>        -0.0649
      3 C3          2.3975    1.3680   -0.5379 C.ar      1 <0>        -0.1108
      4 C4          2.4174    0.0139   -0.2018 C.ar      1 <0>        -0.1345
      5 C5          1.2139   -0.6934   -0.1312 C.ar      1 <0>        -0.1284
      6 C6          0.0166   -0.0475   -0.3943 C.ar      1 <0>         0.2046
      7 N1         -1.1870   -0.7535   -0.3241 N.pl3     1 <0>        -0.8769
      8 C7          3.8124   -0.4183    0.0255 C.2       1 <0>         0.4327
      9 O1          4.1589   -1.5443    0.3329 O.2       1 <0>        -0.4410
     10 C8          4.6834    0.6814   -0.1707 C.2       1 <0>        -0.1907
     11 C9          6.0310    0.6718   -0.0524 C.2       1 <0>         0.0001
     12 C10         6.7870    1.9260   -0.1643 C.ar      1 <0>        -0.0708
     13 C11         6.3088    3.0915    0.4475 C.ar      1 <0>        -0.0460
     14 C12         7.0215    4.2650    0.3397 C.ar      1 <0>        -0.1173
     15 C13         8.2140    4.2941   -0.3758 C.ar      1 <0>         0.1745
     16 C14         8.6932    3.1392   -0.9854 C.ar      1 <0>        -0.1176
     17 C15         7.9913    1.9591   -0.8782 C.ar      1 <0>        -0.0398
     18 Br1        10.3153    3.1878   -1.9561 Br        1 <0>        -0.0153
     19 O2          8.9123    5.4535   -0.4800 O.3       1 <0>        -0.4719
     20 Br2         6.3774    5.8397    1.1651 Br        1 <0>        -0.0153
     21 C16         3.8221    1.8667   -0.5378 C.3       1 <0>        -0.0467
     22 H1         -0.9234    1.8043   -0.9281 H         1 <0>         0.1298
     23 H2          1.1935    3.0512   -1.0580 H         1 <0>         0.1302
     24 H3          1.2173   -1.7419    0.1276 H         1 <0>         0.1276
     25 H4         -2.0255   -0.3019   -0.5081 H         1 <0>         0.4010
     26 H5         -1.1840   -1.6951   -0.0914 H         1 <0>         0.4006
     27 H6          6.5509   -0.2582    0.1242 H         1 <0>         0.1501
     28 H7          5.3827    3.0701    1.0027 H         1 <0>         0.1512
     29 H8          8.3665    1.0620   -1.3481 H         1 <0>         0.1506
     30 H9          9.5606    5.5869    0.2250 H         1 <0>         0.4020
     31 H10         4.0911    2.2328   -1.5286 H         1 <0>         0.0980
     32 H11         3.9415    2.6597    0.2004 H         1 <0>         0.0950
@<TRIPOS>BOND
     1    1    6 ar
     2    1    2 ar
     3    1   22 1
     4    2    3 ar
     5    2   23 1
     6    3   21 1
     7    3    4 ar
     8    4    5 ar
     9    4    8 1
    10    5    6 ar
    11    5   24 1
    12    6    7 1
    13    7   25 1
    14    7   26 1
    15    8    9 2
    16    8   10 1
    17   10   11 2
    18   10   21 1
    19   11   12 1
    20   11   27 1
    21   12   17 ar
    22   12   13 ar
    23   13   14 ar
    24   13   28 1
    25   14   15 ar
    26   14   20 1
    27   15   16 ar
    28   15   19 1
    29   16   17 ar
    30   16   18 1
    31   17   29 1
    32   19   30 1
    33   21   31 1
    34   21   32 1
@<TRIPOS>MOLECULE
CHEMBL312563__1
   31    33     0     0     0
SMALL
USER_CHARGES

@<TRIPOS>ATOM
      1 C1          0.0114    1.3019   -0.7279 C.ar      1 <0>        -0.1658
      2 C2          1.2011    2.0030   -0.7981 C.ar      1 <0>        -0.0710
      3 C3          2.3975    1.3680   -0.5379 C.ar      1 <0>        -0.0996
      4 C4          2.4174    0.0139   -0.2018 C.ar      1 <0>        -0.1306
      5 C5          1.2139   -0.6934   -0.1312 C.ar      1 <0>        -0.1336
      6 C6          0.0166   -0.0475   -0.3943 C.ar      1 <0>         0.1939
      7 N1         -1.1870   -0.7535   -0.3241 N.pl3     1 <0>        -0.8820
      8 C7          3.8124   -0.4183    0.0255 C.2       1 <0>         0.4371
      9 O1          4.1589   -1.5443    0.3329 O.2       1 <0>        -0.4722
     10 C8          4.6834    0.6814   -0.1707 C.2       1 <0>        -0.2696
     11 C9          6.0310    0.6718   -0.0524 C.2       1 <0>         0.0795
     12 C10         6.7870    1.9260   -0.1643 C.ar      1 <0>        -0.2386
     13 C11         6.3088    3.0915    0.4475 C.ar      1 <0>         0.0044
     14 C12         7.0215    4.2650    0.3397 C.ar      1 <0>        -0.2218
     15 C13         8.2140    4.2941   -0.3758 C.ar      1 <0>         0.3214
     16 C14         8.6932    3.1392   -0.9854 C.ar      1 <0>        -0.2215
     17 C15         7.9913    1.9591   -0.8782 C.ar      1 <0>         0.0048
     18 Br1        10.3153    3.1878   -1.9561 Br        1 <0>        -0.0815
     19 O2          8.9123    5.4535   -0.4800 O.3       1 <0>        -0.6451
     20 Br2         6.3774    5.8397    1.1651 Br        1 <0>        -0.0812
     21 C16         3.8221    1.8667   -0.5378 C.3       1 <0>        -0.0348
     22 H1         -0.9234    1.8043   -0.9281 H         1 <0>         0.1242
     23 H2          1.1935    3.0512   -1.0580 H         1 <0>         0.1278
     24 H3          1.2173   -1.7419    0.1276 H         1 <0>         0.1228
     25 H4         -2.0255   -0.3019   -0.5081 H         1 <0>         0.3971
     26 H5         -1.1840   -1.6951   -0.0914 H         1 <0>         0.3971
     27 H6          6.5509   -0.2582    0.1242 H         1 <0>         0.1256
     28 H7          5.3827    3.0701    1.0027 H         1 <0>         0.1173
     29 H8          8.3665    1.0620   -1.3481 H         1 <0>         0.1145
     30 H9          4.0911    2.2328   -1.5286 H         1 <0>         0.0905
     31 H10         3.9415    2.6597    0.2004 H         1 <0>         0.0909
@<TRIPOS>BOND
     1    1    6 ar
     2    1    2 ar
     3    1   22 1
     4    2    3 ar
     5    2   23 1
     6    3   21 1
     7    3    4 ar
     8    4    5 ar
     9    4    8 1
    10    5    6 ar
    11    5   24 1
    12    6    7 1
    13    7   25 1
    14    7   26 1
    15    8    9 2
    16    8   10 1
    17   10   11 2
    18   10   21 1
    19   11   12 1
    20   11   27 1
    21   12   17 ar
    22   12   13 ar
    23   13   14 ar
    24   13   28 1
    25   14   15 ar
    26   14   20 1
    27   15   16 ar
    28   15   19 1
    29   16   17 ar
    30   16   18 1
    31   17   29 1
    32   21   30 1
    33   21   31 1
@<TRIPOS>MOLECULE
CHEMBL459850
   52    55     0     0     0
SMALL
USER_CHARGES

@<TRIPOS>ATOM
      1 C1         -0.0441    1.5022    0.0285 C.3       1 <0>        -0.1132
      2 C2         -0.0168   -0.0045    0.0154 C.ar      1 <0>        -0.0784
      3 C3         -0.0042   -0.6841   -1.1877 C.ar      1 <0>        -0.0940
      4 C4          0.0204   -2.0651   -1.2041 C.ar      1 <0>        -0.1256
      5 C5          0.0328   -2.7754   -0.0098 C.ar      1 <0>         0.1422
      6 C6          0.0206   -2.0959    1.1998 C.ar      1 <0>        -0.0993
      7 C7          0.0012   -0.7084    1.2127 C.ar      1 <0>         0.1714
      8 N1         -0.0054   -0.0193    2.4305 N.am      1 <0>        -0.5708
      9 C8         -1.2793    0.3207    3.0899 C.3       1 <0>         0.1711
     10 C9         -1.1859    1.0639    4.3997 C.ar      1 <0>        -0.3083
     11 C10        -2.3003    1.4371    5.1113 C.ar      1 <0>         0.2393
     12 N2         -2.1347    2.0886    6.2567 N.ar      1 <0>        -0.5842
     13 C11        -0.9212    2.3741    6.7058 C.ar      1 <0>         0.6024
     14 N3          0.1742    2.0286    6.0441 N.ar      1 <0>        -0.5969
     15 C12         0.0822    1.3753    4.8923 C.ar      1 <0>         0.4686
     16 N4          1.2088    1.0013    4.1808 N.am      1 <0>        -0.5369
     17 C13         1.1509    0.3373    3.0189 C.2       1 <0>         0.7163
     18 O1          2.1942    0.0466    2.4666 O.2       1 <0>        -0.5423
     19 C14         2.5251    1.3434    4.7256 C.3       1 <0>         0.0888
     20 N5         -0.7934    3.0550    7.9039 N.pl3     1 <0>        -0.8143
     21 N6          0.0572   -4.1735   -0.0271 N.am      1 <0>        -0.6665
     22 C15         0.7403   -4.8473    0.9194 C.2       1 <0>         0.5597
     23 O2          1.2647   -4.2445    1.8356 O.2       1 <0>        -0.5032
     24 C16         0.8517   -6.3193    0.8435 C.ar      1 <0>        -0.1367
     25 C17         0.2555   -7.0141   -0.2105 C.ar      1 <0>        -0.0542
     26 C18         0.3637   -8.3876   -0.2757 C.ar      1 <0>        -0.1231
     27 C19         1.0613   -9.0769    0.7007 C.ar      1 <0>        -0.0432
     28 C20         1.6545   -8.3946    1.7477 C.ar      1 <0>        -0.1884
     29 C21         1.5584   -7.0201    1.8220 C.ar      1 <0>        -0.0072
     30 C22         2.4122   -9.1535    2.8064 C.3       1 <0>         0.5100
     31 F1          2.3759  -10.5215    2.5155 F         1 <0>        -0.1745
     32 F2          3.7412   -8.7173    2.8317 F         1 <0>        -0.1724
     33 F3          1.8230   -8.9264    4.0548 F         1 <0>        -0.1728
     34 H1          0.9768    1.8841    0.0271 H         1 <0>         0.0730
     35 H2         -0.5685    1.8638   -0.8560 H         1 <0>         0.0719
     36 H3         -0.5603    1.8485    0.9239 H         1 <0>         0.0636
     37 H4         -0.0138   -0.1343   -2.1173 H         1 <0>         0.1359
     38 H5          0.0295   -2.5933   -2.1460 H         1 <0>         0.1324
     39 H6          0.0299   -2.6456    2.1294 H         1 <0>         0.1429
     40 H7         -1.8651    0.9272    2.3991 H         1 <0>         0.0818
     41 H8         -1.8255   -0.6059    3.2662 H         1 <0>         0.0799
     42 H9         -3.2902    1.2057    4.7468 H         1 <0>         0.1789
     43 H10         2.8744    0.5342    5.3668 H         1 <0>         0.0674
     44 H11         3.2303    1.4888    3.9073 H         1 <0>         0.0892
     45 H12         2.4498    2.2617    5.3079 H         1 <0>         0.0918
     46 H13        -1.5848    3.3155    8.4006 H         1 <0>         0.4187
     47 H14         0.0877    3.2718    8.2469 H         1 <0>         0.4163
     48 H15        -0.4175   -4.6583   -0.7202 H         1 <0>         0.4120
     49 H16        -0.2895   -6.4774   -0.9729 H         1 <0>         0.1376
     50 H17        -0.0974   -8.9264   -1.0903 H         1 <0>         0.1465
     51 H18         1.1427  -10.1524    0.6451 H         1 <0>         0.1473
     52 H19         2.0254   -6.4882    2.6376 H         1 <0>         0.1494
@<TRIPOS>BOND
     1    1    2 1
     2    1   34 1
     3    1   35 1
     4    1   36 1
     5    2    7 ar
     6    2    3 ar
     7    3    4 ar
     8    3   37 1
     9    4    5 ar
    10    4   38 1
    11    5    6 ar
    12    5   21 1
    13    6    7 ar
    14    6   39 1
    15    7    8 1
    16    8   17 am
    17    8    9 1
    18    9   10 1
    19    9   40 1
    20    9   41 1
    21   10   15 ar
    22   10   11 ar
    23   11   12 ar
    24   11   42 1
    25   12   13 ar
    26   13   14 ar
    27   13   20 1
    28   14   15 ar
    29   15   16 1
    30   16   17 am
    31   16   19 1
    32   17   18 2
    33   19   43 1
    34   19   44 1
    35   19   45 1
    36   20   46 1
    37   20   47 1
    38   21   22 am
    39   21   48 1
    40   22   23 2
    41   22   24 1
    42   24   29 ar
    43   24   25 ar
    44   25   26 ar
    45   25   49 1
    46   26   27 ar
    47   26   50 1
    48   27   28 ar
    49   27   51 1
    50   28   29 ar
    51   28   30 1
    52   29   52 1
    53   30   31 1
    54   30   32 1
    55   30   33 1
@<TRIPOS>MOLECULE
CHEMBL199369
   81    86     0     0     0
SMALL
USER_CHARGES

@<TRIPOS>ATOM
      1 C1          0.3319    1.5891   -0.0643 C.3       1 <0>         0.0851
      2 N1          1.5495    1.4416   -0.8656 N.pl3     1 <0>        -0.6260
      3 C2          2.8041    2.0451   -0.4094 C.3       1 <0>         0.0845
      4 C3          1.5144    0.7289   -2.0591 C.ar      1 <0>         0.2500
      5 C4          2.6736    0.5849   -2.8165 C.ar      1 <0>        -0.2105
      6 C5          2.6420   -0.1194   -3.9982 C.ar      1 <0>         0.0000
      7 C6          1.4443   -0.6911   -4.4377 C.ar      1 <0>        -0.2116
      8 C7          0.2820   -0.5451   -3.6746 C.ar      1 <0>        -0.0293
      9 C8          0.3214    0.1560   -2.4911 C.ar      1 <0>        -0.2092
     10 C9          1.4068   -1.4463   -5.7041 C.2       1 <0>         0.5715
     11 O1          2.4185   -1.5722   -6.3672 O.2       1 <0>        -0.5255
     12 N2          0.2514   -1.9968   -6.1265 N.am      1 <0>        -0.6654
     13 C10         0.1881   -2.6151   -7.3805 C.ar      1 <0>         0.1472
     14 C11         1.2988   -3.2802   -7.8825 C.ar      1 <0>        -0.0817
     15 C12         1.2399   -3.8907   -9.1180 C.ar      1 <0>        -0.1280
     16 C13         0.0638   -3.8410   -9.8658 C.ar      1 <0>        -0.0158
     17 C14        -1.0525   -3.1735   -9.3632 C.ar      1 <0>        -0.1544
     18 C15        -0.9918   -2.5674   -8.1217 C.ar      1 <0>         0.1083
     19 O2         -2.0807   -1.9209   -7.6263 O.3       1 <0>        -0.3117
     20 C16        -3.2555   -1.9119   -8.4397 C.3       1 <0>         0.0273
     21 C17         0.0007   -4.4965  -11.1936 C.2       1 <0>         0.1994
     22 C18         0.4493   -5.8517  -11.5130 C.ar      1 <0>        -0.3275
     23 C19         1.0312   -6.9028  -10.7852 C.ar      1 <0>         0.5244
     24 N3          1.3161   -8.0321  -11.4260 N.ar      1 <0>        -0.6004
     25 C20         1.0605   -8.1682  -12.7153 C.ar      1 <0>         0.3987
     26 N4          0.5175   -7.2123  -13.4364 N.ar      1 <0>        -0.5848
     27 C21         0.1954   -6.0427  -12.8839 C.ar      1 <0>         0.3832
     28 N5         -0.3626   -4.8888  -13.3479 N.pl3     1 <0>        -0.3895
     29 N6         -0.4731   -3.9704  -12.2984 N.2       1 <0>        -0.2500
     30 C22        -0.7858   -4.6495  -14.7298 C.3       1 <0>         0.1693
     31 C23        -0.0177   -3.4541  -15.3009 C.3       1 <0>        -0.1569
     32 C24        -0.5209   -3.1602  -16.7158 C.3       1 <0>        -0.0056
     33 N7         -1.9545   -2.8478  -16.6740 N.4       1 <0>        -0.3828
     34 C25        -2.7049   -4.0148  -16.1950 C.3       1 <0>        -0.0058
     35 C26        -2.2856   -4.3416  -14.7601 C.3       1 <0>        -0.1566
     36 C27        -2.4158   -2.4906  -18.0222 C.3       1 <0>         0.0235
     37 C28        -1.6489   -1.2605  -18.5171 C.3       1 <0>        -0.1795
     38 C29        -2.1906   -0.8486  -19.8885 C.3       1 <0>         0.0627
     39 O3         -3.5922   -0.5891  -19.7872 O.3       1 <0>        -0.3681
     40 C30        -4.3661   -1.7172  -19.3742 C.3       1 <0>         0.0627
     41 C31        -3.9118   -2.1639  -17.9822 C.3       1 <0>        -0.1793
     42 N8          1.3012   -6.7662   -9.4372 N.pl3     1 <0>        -0.8177
     43 H1         -0.2002    2.4885   -0.3741 H         1 <0>         0.0550
     44 H2         -0.3080    0.7191   -0.2123 H         1 <0>         0.0727
     45 H3          0.5981    1.6692    0.9897 H         1 <0>         0.0727
     46 H4          3.3454    1.3320    0.2122 H         1 <0>         0.0559
     47 H5          3.4142    2.3112   -1.2726 H         1 <0>         0.0734
     48 H6          2.5861    2.9413    0.1715 H         1 <0>         0.0725
     49 H7          3.5985    1.0268   -2.4764 H         1 <0>         0.1322
     50 H8          3.5415   -0.2302   -4.5857 H         1 <0>         0.1365
     51 H9         -0.6448   -0.9855   -4.0114 H         1 <0>         0.1238
     52 H10        -0.5752    0.2657   -1.8991 H         1 <0>         0.1310
     53 H11        -0.5363   -1.9645   -5.5614 H         1 <0>         0.4159
     54 H12         2.2105   -3.3194   -7.3049 H         1 <0>         0.1630
     55 H13         2.1051   -4.4071   -9.5066 H         1 <0>         0.1361
     56 H14        -1.9642   -3.1335   -9.9407 H         1 <0>         0.1377
     57 H15        -4.0473   -1.3646   -7.9283 H         1 <0>         0.1062
     58 H16        -3.0351   -1.4278   -9.3911 H         1 <0>         0.0563
     59 H17        -3.5803   -2.9366   -8.6202 H         1 <0>         0.0572
     60 H18         1.3080   -9.1028  -13.1964 H         1 <0>         0.2088
     61 H19        -0.5834   -5.5355  -15.3316 H         1 <0>         0.1248
     62 H20        -0.1798   -2.5814  -14.6683 H         1 <0>         0.1025
     63 H21         1.0465   -3.6876  -15.3343 H         1 <0>         0.1184
     64 H22         0.0240   -2.3097  -17.1255 H         1 <0>         0.1395
     65 H23        -0.3581   -4.0334  -17.3476 H         1 <0>         0.1346
     66 H24        -3.7722   -3.7952  -16.2201 H         1 <0>         0.1393
     67 H25        -2.4955   -4.8698  -16.8378 H         1 <0>         0.1346
     68 H26        -2.8426   -5.2094  -14.4068 H         1 <0>         0.1178
     69 H27        -2.4948   -3.4873  -14.1162 H         1 <0>         0.1017
     70 H28        -2.2432   -3.3266  -18.7001 H         1 <0>         0.1404
     71 H29        -1.7818   -0.4402  -17.8116 H         1 <0>         0.0971
     72 H30        -0.5892   -1.5015  -18.6014 H         1 <0>         0.1011
     73 H31        -1.6776    0.0518  -20.2265 H         1 <0>         0.1167
     74 H32        -2.0207   -1.6539  -20.6032 H         1 <0>         0.0662
     75 H33        -5.4204   -1.4425  -19.3417 H         1 <0>         0.1164
     76 H34        -4.2247   -2.5338  -20.0822 H         1 <0>         0.0662
     77 H35        -4.4705   -3.0510  -17.6839 H         1 <0>         0.1008
     78 H36        -4.0904   -1.3619  -17.2659 H         1 <0>         0.0969
     79 H37         1.1085   -5.9292   -8.9863 H         1 <0>         0.4160
     80 H38         1.6835   -7.5072   -8.9416 H         1 <0>         0.4150
     81 H39        -2.1102   -2.0699  -16.0505 H         1 <0>         0.4232
@<TRIPOS>BOND
     1    1    2 1
     2    1   43 1
     3    1   44 1
     4    1   45 1
     5    2    3 1
     6    2    4 1
     7    3   46 1
     8    3   47 1
     9    3   48 1
    10    4    9 ar
    11    4    5 ar
    12    5    6 ar
    13    5   49 1
    14    6    7 ar
    15    6   50 1
    16    7    8 ar
    17    7   10 1
    18    8    9 ar
    19    8   51 1
    20    9   52 1
    21   10   11 2
    22   10   12 am
    23   12   13 1
    24   12   53 1
    25   13   18 ar
    26   13   14 ar
    27   14   15 ar
    28   14   54 1
    29   15   16 ar
    30   15   55 1
    31   16   17 ar
    32   16   21 1
    33   17   18 ar
    34   17   56 1
    35   18   19 1
    36   19   20 1
    37   20   57 1
    38   20   58 1
    39   20   59 1
    40   21   29 2
    41   21   22 1
    42   22   27 ar
    43   22   23 ar
    44   23   24 ar
    45   23   42 1
    46   24   25 ar
    47   25   26 ar
    48   25   60 1
    49   26   27 ar
    50   27   28 1
    51   28   29 1
    52   28   30 1
    53   30   35 1
    54   30   31 1
    55   30   61 1
    56   31   32 1
    57   31   62 1
    58   31   63 1
    59   32   33 1
    60   32   64 1
    61   32   65 1
    62   33   34 1
    63   33   36 1
    64   33   81 1
    65   34   35 1
    66   34   66 1
    67   34   67 1
    68   35   68 1
    69   35   69 1
    70   36   41 1
    71   36   37 1
    72   36   70 1
    73   37   38 1
    74   37   71 1
    75   37   72 1
    76   38   39 1
    77   38   73 1
    78   38   74 1
    79   39   40 1
    80   40   41 1
    81   40   75 1
    82   40   76 1
    83   41   77 1
    84   41   78 1
    85   42   79 1
    86   42   80 1
@<TRIPOS>MOLECULE
CHEMBL607366
   60    64     0     0     0
SMALL
USER_CHARGES

@<TRIPOS>ATOM
      1 C1          3.3353    1.3633    3.5661 C.ar      1 <0>        -0.1507
      2 C2          3.4179   -0.0168    3.5458 C.ar      1 <0>        -0.0822
      3 C3          3.5017   -0.6873    2.3410 C.ar      1 <0>        -0.1947
      4 C4          3.5028    0.0255    1.1504 C.ar      1 <0>         0.1200
      5 C5          3.4197    1.4104    1.1736 C.ar      1 <0>        -0.1443
      6 C6          3.3362    2.0759    2.3812 C.ar      1 <0>        -0.0815
      7 O1          3.5855   -0.6316   -0.0361 O.3       1 <0>        -0.2604
      8 C7          3.6573   -1.9880   -0.0104 C.ar      1 <0>         0.1019
      9 C8          2.4931   -2.7443   -0.0459 C.ar      1 <0>        -0.1260
     10 C9          2.5627   -4.1211   -0.0199 C.ar      1 <0>        -0.0693
     11 C10         3.8036   -4.7540    0.0421 C.ar      1 <0>        -0.0274
     12 C11         4.9707   -3.9918    0.0777 C.ar      1 <0>        -0.0769
     13 C12         4.8948   -2.6155    0.0458 C.ar      1 <0>        -0.1239
     14 C13         3.8819   -6.2341    0.0707 C.2       1 <0>         0.1701
     15 C14         4.9265   -7.0672   -0.5465 C.2       1 <0>        -0.2919
     16 C15         4.5707   -8.3735   -0.2569 C.2       1 <0>         0.3714
     17 N1          3.4623   -8.3700    0.4610 N.pl3     1 <0>        -0.3606
     18 N2          3.0337   -7.0512    0.6575 N.2       1 <0>        -0.2633
     19 C16         2.8185   -9.5815    0.9777 C.3       1 <0>         0.1257
     20 C17         3.6772  -10.2521    2.0288 C.3       1 <0>        -0.0906
     21 C18         5.0268  -10.7216    1.5295 C.ar      1 <0>        -0.1381
     22 C19         5.6628  -11.5894    2.4310 C.ar      1 <0>        -0.0551
     23 C20         6.8914  -12.1399    2.1664 C.ar      1 <0>        -0.2165
     24 C21         7.5426  -11.8452    0.9760 C.ar      1 <0>         0.1387
     25 C22         6.9341  -10.9896    0.0786 C.ar      1 <0>        -0.1718
     26 C23         5.6861  -10.4262    0.3580 C.ar      1 <0>         0.2323
     27 N3          5.1888   -9.5530   -0.6102 N.pl3     1 <0>        -0.6838
     28 O2          8.7571  -12.3885    0.6990 O.3       1 <0>        -0.3271
     29 C24         9.3159  -13.2628    1.6815 C.3       1 <0>         0.0218
     30 C25        10.6747  -13.7724    1.1969 C.3       1 <0>         0.0026
     31 N4         11.6135  -12.6468    1.0994 N.4       1 <0>        -0.6386
     32 C26         6.0943   -6.6111   -1.3066 C.2       1 <0>         0.6129
     33 O3          7.1411   -6.3772   -0.7316 O.2       1 <0>        -0.5367
     34 N5          6.0085   -6.4508   -2.6420 N.am      1 <0>        -0.8451
     35 H1          3.2654    1.8853    4.5090 H         1 <0>         0.1265
     36 H2          3.4174   -0.5711    4.4728 H         1 <0>         0.1260
     37 H3          3.5666   -1.7652    2.3257 H         1 <0>         0.1268
     38 H4          3.4208    1.9675    0.2484 H         1 <0>         0.1335
     39 H5          3.2711    3.1538    2.3998 H         1 <0>         0.1329
     40 H6          1.5323   -2.2535   -0.0936 H         1 <0>         0.1392
     41 H7          1.6569   -4.7087   -0.0473 H         1 <0>         0.1382
     42 H8          5.9333   -4.4792    0.1258 H         1 <0>         0.1392
     43 H9          5.7986   -2.0247    0.0689 H         1 <0>         0.1380
     44 H10         1.8576   -9.3153    1.4181 H         1 <0>         0.1157
     45 H11         2.6529  -10.2768    0.1548 H         1 <0>         0.0951
     46 H12         3.8367   -9.5480    2.8454 H         1 <0>         0.0874
     47 H13         3.1350  -11.1128    2.4203 H         1 <0>         0.1076
     48 H14         5.1703  -11.8307    3.3614 H         1 <0>         0.1339
     49 H15         7.3522  -12.8023    2.8843 H         1 <0>         0.1305
     50 H16         7.4294  -10.7527   -0.8514 H         1 <0>         0.1373
     51 H17         5.2797   -9.7806   -1.5487 H         1 <0>         0.4223
     52 H18         9.4442  -12.7214    2.6188 H         1 <0>         0.0893
     53 H19         8.6459  -14.1081    1.8389 H         1 <0>         0.1115
     54 H20        11.0604  -14.5070    1.9038 H         1 <0>         0.1545
     55 H21        10.5605  -14.2362    0.2171 H         1 <0>         0.1455
     56 H22        11.2564  -11.9667    0.4451 H         1 <0>         0.4424
     57 H23        11.7193  -12.2175    2.0064 H         1 <0>         0.4358
     58 H24         5.1742   -6.6372   -3.1003 H         1 <0>         0.4038
     59 H25         6.7811   -6.1491   -3.1449 H         1 <0>         0.4050
     60 H26        12.5096  -12.9828    0.7798 H         1 <0>         0.4407
@<TRIPOS>BOND
     1    1    6 ar
     2    1    2 ar
     3    1   35 1
     4    2    3 ar
     5    2   36 1
     6    3    4 ar
     7    3   37 1
     8    4    5 ar
     9    4    7 1
    10    5    6 ar
    11    5   38 1
    12    6   39 1
    13    7    8 1
    14    8   13 ar
    15    8    9 ar
    16    9   10 ar
    17    9   40 1
    18   10   11 ar
    19   10   41 1
    20   11   12 ar
    21   11   14 1
    22   12   13 ar
    23   12   42 1
    24   13   43 1
    25   14   18 2
    26   14   15 1
    27   15   16 2
    28   15   32 1
    29   16   27 1
    30   16   17 1
    31   17   18 1
    32   17   19 1
    33   19   20 1
    34   19   44 1
    35   19   45 1
    36   20   21 1
    37   20   46 1
    38   20   47 1
    39   21   26 ar
    40   21   22 ar
    41   22   23 ar
    42   22   48 1
    43   23   24 ar
    44   23   49 1
    45   24   25 ar
    46   24   28 1
    47   25   26 ar
    48   25   50 1
    49   26   27 1
    50   27   51 1
    51   28   29 1
    52   29   30 1
    53   29   52 1
    54   29   53 1
    55   30   31 1
    56   30   54 1
    57   30   55 1
    58   31   56 1
    59   31   57 1
    60   31   60 1
    61   32   33 2
    62   32   34 am
    63   34   58 1
    64   34   59 1
@<TRIPOS>MOLECULE
CHEMBL186498
   58    61     0     0     0
SMALL
USER_CHARGES

@<TRIPOS>ATOM
      1 C1         -1.8964    1.6675    0.2083 C.3       1 <0>        -0.1168
      2 C2         -1.4925    0.2275    0.0228 C.ar      1 <0>        -0.0818
      3 C3         -1.6742   -0.3895   -1.1999 C.ar      1 <0>        -0.1036
      4 C4         -1.3042   -1.7105   -1.3715 C.ar      1 <0>        -0.0994
      5 C5         -0.7512   -2.4193   -0.3204 C.ar      1 <0>        -0.1045
      6 C6         -0.5671   -1.8085    0.9053 C.ar      1 <0>        -0.0222
      7 C7         -0.9325   -0.4785    1.0788 C.ar      1 <0>         0.1352
      8 N1         -0.7419    0.1452    2.3165 N.am      1 <0>        -0.6666
      9 C8         -1.2146   -0.4292    3.4404 C.2       1 <0>         0.6017
     10 O1         -1.7179   -1.5368    3.3927 O.2       1 <0>        -0.4718
     11 C9         -1.1229    0.2779    4.7170 C.2       1 <0>        -0.2651
     12 C10        -1.5333   -0.1195    5.9820 C.2       1 <0>         0.1546
     13 N2         -1.3214    0.7297    6.9556 N.2       1 <0>        -0.5464
     14 C11        -0.7474    1.8998    6.7379 C.2       1 <0>         0.2538
     15 S1         -0.4447    1.8889    5.0825 S.3       1 <0>         0.2354
     16 N3         -0.4597    2.8931    7.6522 N.pl3     1 <0>        -0.5947
     17 C12        -0.6831    2.6762    9.0088 C.ar      1 <0>         0.4277
     18 C13        -1.0437    1.4096    9.4524 C.ar      1 <0>        -0.2101
     19 C14        -1.2637    1.2028   10.8045 C.ar      1 <0>         0.0642
     20 C15        -1.1152    2.2731   11.6715 C.ar      1 <0>        -0.2243
     21 C16        -0.7523    3.5144   11.1623 C.ar      1 <0>         0.4637
     22 N4         -0.5443    3.6780    9.8643 N.ar      1 <0>        -0.5320
     23 N5         -0.6010    4.5940   12.0246 N.pl3     1 <0>        -0.7034
     24 C17        -0.8237    4.4201   13.4621 C.3       1 <0>         0.1141
     25 C18        -0.5933    5.7522   14.1787 C.3       1 <0>         0.0405
     26 N6         -0.8166    5.5778   15.6201 N.3       1 <0>        -0.5319
     27 C19        -2.2276    5.2762   15.9019 C.3       1 <0>         0.0100
     28 C20        -2.4039    5.0438   17.4049 C.3       1 <0>         0.0611
     29 O2         -1.9436    6.1952   18.1174 O.3       1 <0>        -0.3804
     30 C21        -0.5729    6.5175   17.8668 C.3       1 <0>         0.0612
     31 C22        -0.3781    6.7648   16.3686 C.3       1 <0>         0.0186
     32 Cl1         0.1266   -2.6986    2.2245 Cl        1 <0>        -0.0448
     33 H1         -1.0567    2.3156   -0.0428 H         1 <0>         0.0768
     34 H2         -2.7391    1.8955   -0.4444 H         1 <0>         0.0783
     35 H3         -2.1854    1.8331    1.2461 H         1 <0>         0.0641
     36 H4         -2.1061    0.1608   -2.0227 H         1 <0>         0.1369
     37 H5         -1.4478   -2.1902   -2.3284 H         1 <0>         0.1389
     38 H6         -0.4632   -3.4511   -0.4578 H         1 <0>         0.1403
     39 H7         -0.2697    0.9910    2.3657 H         1 <0>         0.4080
     40 H8         -2.0024   -1.0770    6.1538 H         1 <0>         0.2045
     41 H9         -0.1018    3.7422    7.3493 H         1 <0>         0.4418
     42 H10        -1.1518    0.5956    8.7509 H         1 <0>         0.2185
     43 H11        -1.5452    0.2281   11.1747 H         1 <0>         0.1779
     44 H12        -1.2798    2.1444   12.7310 H         1 <0>         0.1784
     45 H13        -0.3479    5.4625   11.6746 H         1 <0>         0.4164
     46 H14        -1.8475    4.0877   13.6336 H         1 <0>         0.0891
     47 H15        -0.1298    3.6743   13.8497 H         1 <0>         0.1000
     48 H16         0.4306    6.0846   14.0073 H         1 <0>         0.0902
     49 H17        -1.2872    6.4981   13.7911 H         1 <0>         0.0496
     50 H18        -2.8489    6.1150   15.5880 H         1 <0>         0.0494
     51 H19        -2.5238    4.3794   15.3578 H         1 <0>         0.0876
     52 H20        -3.4579    4.8761   17.6261 H         1 <0>         0.1033
     53 H21        -1.8244    4.1720   17.7088 H         1 <0>         0.0637
     54 H22        -0.3028    7.4157   18.4221 H         1 <0>         0.1050
     55 H23         0.0598    5.6885   18.1841 H         1 <0>         0.0644
     56 H24         0.6757    6.9546   16.1650 H         1 <0>         0.0916
     57 H25        -0.9698    7.6274   16.0621 H         1 <0>         0.0495
     58 H26        -0.2879    4.5526    9.5321 H         1 <0>         0.4337
@<TRIPOS>BOND
     1    1    2 1
     2    1   33 1
     3    1   34 1
     4    1   35 1
     5    2    7 ar
     6    2    3 ar
     7    3    4 ar
     8    3   36 1
     9    4    5 ar
    10    4   37 1
    11    5    6 ar
    12    5   38 1
    13    6    7 ar
    14    6   32 1
    15    7    8 1
    16    8    9 am
    17    8   39 1
    18    9   10 2
    19    9   11 1
    20   11   15 1
    21   11   12 2
    22   12   13 1
    23   12   40 1
    24   13   14 2
    25   14   15 1
    26   14   16 1
    27   16   17 1
    28   16   41 1
    29   17   22 ar
    30   17   18 ar
    31   18   19 ar
    32   18   42 1
    33   19   20 ar
    34   19   43 1
    35   20   21 ar
    36   20   44 1
    37   21   22 ar
    38   21   23 1
    39   22   58 1
    40   23   24 1
    41   23   45 1
    42   24   25 1
    43   24   46 1
    44   24   47 1
    45   25   26 1
    46   25   48 1
    47   25   49 1
    48   26   31 1
    49   26   27 1
    50   27   28 1
    51   27   50 1
    52   27   51 1
    53   28   29 1
    54   28   52 1
    55   28   53 1
    56   29   30 1
    57   30   31 1
    58   30   54 1
    59   30   55 1
    60   31   56 1
    61   31   57 1
@<TRIPOS>MOLECULE
CHEMBL186498__1
   59    62     0     0     0
SMALL
USER_CHARGES

@<TRIPOS>ATOM
      1 C1         -1.8964    1.6675    0.2083 C.3       1 <0>        -0.1166
      2 C2         -1.4925    0.2275    0.0228 C.ar      1 <0>        -0.0810
      3 C3         -1.6742   -0.3895   -1.1999 C.ar      1 <0>        -0.1027
      4 C4         -1.3042   -1.7105   -1.3715 C.ar      1 <0>        -0.0966
      5 C5         -0.7512   -2.4193   -0.3204 C.ar      1 <0>        -0.1036
      6 C6         -0.5671   -1.8085    0.9053 C.ar      1 <0>        -0.0215
      7 C7         -0.9325   -0.4785    1.0788 C.ar      1 <0>         0.1314
      8 N1         -0.7419    0.1452    2.3165 N.am      1 <0>        -0.6640
      9 C8         -1.2146   -0.4292    3.4404 C.2       1 <0>         0.5974
     10 O1         -1.7179   -1.5368    3.3927 O.2       1 <0>        -0.4666
     11 C9         -1.1229    0.2779    4.7170 C.2       1 <0>        -0.2503
     12 C10        -1.5333   -0.1195    5.9820 C.2       1 <0>         0.1478
     13 N2         -1.3214    0.7297    6.9556 N.2       1 <0>        -0.5420
     14 C11        -0.7474    1.8998    6.7379 C.2       1 <0>         0.2313
     15 S1         -0.4447    1.8889    5.0825 S.3       1 <0>         0.2548
     16 N3         -0.4597    2.8931    7.6522 N.pl3     1 <0>        -0.5876
     17 C12        -0.6831    2.6762    9.0088 C.ar      1 <0>         0.4431
     18 C13        -1.0437    1.4096    9.4524 C.ar      1 <0>        -0.2010
     19 C14        -1.2637    1.2028   10.8045 C.ar      1 <0>         0.0682
     20 C15        -1.1152    2.2731   11.6715 C.ar      1 <0>        -0.2264
     21 C16        -0.7523    3.5144   11.1623 C.ar      1 <0>         0.4536
     22 N4         -0.5443    3.6780    9.8643 N.ar      1 <0>        -0.5270
     23 N5         -0.6010    4.5940   12.0246 N.pl3     1 <0>        -0.7179
     24 C17        -0.8237    4.4201   13.4621 C.3       1 <0>         0.0952
     25 C18        -0.5933    5.7522   14.1787 C.3       1 <0>        -0.0228
     26 N6         -0.8166    5.5778   15.6201 N.4       1 <0>        -0.3819
     27 C19        -2.2279    5.2472   15.8608 C.3       1 <0>        -0.0525
     28 C20        -2.4580    5.0658   17.3632 C.3       1 <0>         0.0351
     29 O2         -2.0748    6.2624   18.0467 O.3       1 <0>        -0.3513
     30 C21        -0.7133    6.6396   17.8239 C.3       1 <0>         0.0345
     31 C22        -0.4799    6.8239   16.3223 C.3       1 <0>        -0.0429
     32 Cl1         0.1266   -2.6986    2.2245 Cl        1 <0>        -0.0459
     33 H1         -1.0567    2.3156   -0.0428 H         1 <0>         0.0771
     34 H2         -2.7391    1.8955   -0.4444 H         1 <0>         0.0793
     35 H3         -2.1854    1.8331    1.2461 H         1 <0>         0.0626
     36 H4         -2.1061    0.1608   -2.0227 H         1 <0>         0.1382
     37 H5         -1.4478   -2.1902   -2.3284 H         1 <0>         0.1405
     38 H6         -0.4632   -3.4511   -0.4578 H         1 <0>         0.1415
     39 H7         -0.2697    0.9910    2.3657 H         1 <0>         0.4075
     40 H8         -2.0024   -1.0770    6.1538 H         1 <0>         0.2074
     41 H9         -0.1018    3.7422    7.3493 H         1 <0>         0.4441
     42 H10        -1.1518    0.5956    8.7509 H         1 <0>         0.2236
     43 H11        -1.5452    0.2281   11.1747 H         1 <0>         0.1822
     44 H12        -1.2798    2.1444   12.7310 H         1 <0>         0.1744
     45 H13        -0.3479    5.4625   11.6746 H         1 <0>         0.4222
     46 H14        -1.8475    4.0877   13.6336 H         1 <0>         0.1059
     47 H15        -0.1298    3.6743   13.8497 H         1 <0>         0.1073
     48 H16         0.4306    6.0846   14.0073 H         1 <0>         0.1460
     49 H17        -1.2872    6.4981   13.7911 H         1 <0>         0.1442
     50 H18        -2.8589    6.0556   15.4913 H         1 <0>         0.1442
     51 H19        -2.4787    4.3229   15.3404 H         1 <0>         0.1422
     52 H20        -3.5129    4.8630   17.5480 H         1 <0>         0.1465
     53 H21        -1.8573    4.2315   17.7253 H         1 <0>         0.0852
     54 H22        -0.5054    7.5757   18.3422 H         1 <0>         0.1479
     55 H23        -0.0528    5.8591   18.2018 H         1 <0>         0.0855
     56 H24         0.5669    7.0700   16.1445 H         1 <0>         0.1471
     57 H25        -1.1116    7.6317   15.9527 H         1 <0>         0.1432
     58 H26        -0.2879    4.5526    9.5321 H         1 <0>         0.4365
     59 H27        -0.2325    4.8300   15.9631 H         1 <0>         0.4279
@<TRIPOS>BOND
     1    1    2 1
     2    1   33 1
     3    1   34 1
     4    1   35 1
     5    2    7 ar
     6    2    3 ar
     7    3    4 ar
     8    3   36 1
     9    4    5 ar
    10    4   37 1
    11    5    6 ar
    12    5   38 1
    13    6    7 ar
    14    6   32 1
    15    7    8 1
    16    8    9 am
    17    8   39 1
    18    9   10 2
    19    9   11 1
    20   11   15 1
    21   11   12 2
    22   12   13 1
    23   12   40 1
    24   13   14 2
    25   14   15 1
    26   14   16 1
    27   16   17 1
    28   16   41 1
    29   17   22 ar
    30   17   18 ar
    31   18   19 ar
    32   18   42 1
    33   19   20 ar
    34   19   43 1
    35   20   21 ar
    36   20   44 1
    37   21   22 ar
    38   21   23 1
    39   22   58 1
    40   23   24 1
    41   23   45 1
    42   24   25 1
    43   24   46 1
    44   24   47 1
    45   25   26 1
    46   25   48 1
    47   25   49 1
    48   26   31 1
    49   26   27 1
    50   26   59 1
    51   27   28 1
    52   27   50 1
    53   27   51 1
    54   28   29 1
    55   28   52 1
    56   28   53 1
    57   29   30 1
    58   30   31 1
    59   30   54 1
    60   30   55 1
    61   31   56 1
    62   31   57 1
@<TRIPOS>MOLECULE
CHEMBL186498__2
   57    60     0     0     0
SMALL
USER_CHARGES

@<TRIPOS>ATOM
      1 C1          3.3392    6.6626    1.8698 C.3       1 <0>        -0.1165
      2 C2          2.6244    7.9850    1.9760 C.ar      1 <0>        -0.0852
      3 C3          2.9401    9.0132    1.1088 C.ar      1 <0>        -0.1055
      4 C4          2.2852   10.2269    1.2051 C.ar      1 <0>        -0.1072
      5 C5          1.3120   10.4167    2.1693 C.ar      1 <0>        -0.1066
      6 C6          0.9915    9.3929    3.0402 C.ar      1 <0>        -0.0243
      7 C7          1.6441    8.1694    2.9416 C.ar      1 <0>         0.1463
      8 N1          1.3182    7.1283    3.8175 N.am      1 <0>        -0.6735
      9 C8          1.3154    7.3430    5.1480 C.2       1 <0>         0.6138
     10 O1          1.4971    8.4653    5.5840 O.2       1 <0>        -0.4926
     11 C9          1.0942    6.2282    6.0680 C.2       1 <0>        -0.3142
     12 C10         1.0452    6.2198    7.4551 C.2       1 <0>         0.1723
     13 N2          0.8280    5.0601    8.0223 N.2       1 <0>        -0.5247
     14 C11         0.6652    3.9615    7.3064 C.2       1 <0>         0.3185
     15 S1          0.8043    4.5012    5.7184 S.3       1 <0>         0.1273
     16 N3          0.4315    2.6770    7.7544 N.pl3     1 <0>        -0.5942
     17 C12         0.2332    2.4385    9.1113 C.ar      1 <0>         0.4112
     18 C13        -0.1130    1.1635    9.5420 C.ar      1 <0>        -0.2635
     19 C14        -0.3080    0.9352   10.8944 C.ar      1 <0>        -0.0040
     20 C15        -0.1497    1.9931   11.7748 C.ar      1 <0>        -0.2666
     21 C16         0.1977    3.2439   11.2782 C.ar      1 <0>         0.4389
     22 N4          0.3819    3.4281    9.9793 N.ar      1 <0>        -0.5312
     23 N5          0.3586    4.3112   12.1540 N.pl3     1 <0>        -0.7213
     24 C17         0.1622    4.1145   13.5923 C.3       1 <0>         0.1330
     25 C18         0.3984    5.4368   14.3248 C.3       1 <0>         0.0444
     26 N6          0.2014    5.2396   15.7672 N.3       1 <0>        -0.5329
     27 C19        -1.2028    4.9260   16.0691 C.3       1 <0>         0.0113
     28 C20        -1.3513    4.6701   17.5712 C.3       1 <0>         0.0629
     29 O2         -0.8845    5.8131   18.2929 O.3       1 <0>        -0.3847
     30 C21         0.4798    6.1466   18.0232 C.3       1 <0>         0.0631
     31 C22         0.6469    6.4175   16.5257 C.3       1 <0>         0.0180
     32 Cl1        -0.2296    9.6317    4.2507 Cl        1 <0>        -0.0437
     33 H1          2.7981    6.0112    1.1835 H         1 <0>         0.0756
     34 H2          4.3501    6.8249    1.4958 H         1 <0>         0.0753
     35 H3          3.3864    6.1951    2.8533 H         1 <0>         0.0676
     36 H4          3.6998    8.8686    0.3549 H         1 <0>         0.1337
     37 H5          2.5344   11.0289    0.5260 H         1 <0>         0.1350
     38 H6          0.8023   11.3661    2.2419 H         1 <0>         0.1369
     39 H7          1.0941    6.2520    3.4671 H         1 <0>         0.4087
     40 H8          1.1793    7.1210    8.0350 H         1 <0>         0.1850
     41 H9          0.4055    1.9405    7.1237 H         1 <0>         0.4389
     42 H10        -0.2292    0.3596    8.8302 H         1 <0>         0.1333
     43 H11        -0.5779   -0.0465   11.2547 H         1 <0>         0.1387
     44 H12        -0.2950    1.8475   12.8350 H         1 <0>         0.1321
     45 H13         0.6010    5.1862   11.8127 H         1 <0>         0.4068
     46 H14        -0.8567    3.7739   13.7767 H         1 <0>         0.0641
     47 H15         0.8667    3.3666   13.9563 H         1 <0>         0.0748
     48 H16         1.4173    5.7773   14.1405 H         1 <0>         0.0855
     49 H17        -0.3061    6.1847   13.9608 H         1 <0>         0.0449
     50 H18        -1.8339    5.7661   15.7789 H         1 <0>         0.0461
     51 H19        -1.5039    4.0359   15.5167 H         1 <0>         0.0896
     52 H20        -2.4004    4.4934   17.8084 H         1 <0>         0.0998
     53 H21        -0.7621    3.7970   17.8517 H         1 <0>         0.0616
     54 H22         0.7551    7.0378   18.5872 H         1 <0>         0.1005
     55 H23         1.1223    5.3164   18.3168 H         1 <0>         0.0618
     56 H24         1.6960    6.6161   16.3065 H         1 <0>         0.0892
     57 H25         0.0454    7.2814   16.2428 H         1 <0>         0.0460
@<TRIPOS>BOND
     1    1    2 1
     2    1   33 1
     3    1   34 1
     4    1   35 1
     5    2    7 ar
     6    2    3 ar
     7    3    4 ar
     8    3   36 1
     9    4    5 ar
    10    4   37 1
    11    5    6 ar
    12    5   38 1
    13    6    7 ar
    14    6   32 1
    15    7    8 1
    16    8    9 am
    17    8   39 1
    18    9   10 2
    19    9   11 1
    20   11   15 1
    21   11   12 2
    22   12   13 1
    23   12   40 1
    24   13   14 2
    25   14   15 1
    26   14   16 1
    27   16   17 1
    28   16   41 1
    29   17   22 ar
    30   17   18 ar
    31   18   19 ar
    32   18   42 1
    33   19   20 ar
    34   19   43 1
    35   20   21 ar
    36   20   44 1
    37   21   22 ar
    38   21   23 1
    39   23   24 1
    40   23   45 1
    41   24   25 1
    42   24   46 1
    43   24   47 1
    44   25   26 1
    45   25   48 1
    46   25   49 1
    47   26   31 1
    48   26   27 1
    49   27   28 1
    50   27   50 1
    51   27   51 1
    52   28   29 1
    53   28   52 1
    54   28   53 1
    55   29   30 1
    56   30   31 1
    57   30   54 1
    58   30   55 1
    59   31   56 1
    60   31   57 1
@<TRIPOS>MOLECULE
CHEMBL427226
   68    72     0     0     0
SMALL
USER_CHARGES

@<TRIPOS>ATOM
      1 C1         -1.4630    1.4155   -1.1325 C.3       1 <0>        -0.1284
      2 C2         -1.2439   -0.0689   -0.9931 C.ar      1 <0>        -0.0363
      3 C3         -1.2535   -0.8751   -2.1150 C.ar      1 <0>        -0.1235
      4 C4         -1.0531   -2.2355   -1.9961 C.ar      1 <0>        -0.0800
      5 C5         -0.8393   -2.8048   -0.7387 C.ar      1 <0>        -0.1468
      6 C6         -0.8288   -1.9956    0.3960 C.ar      1 <0>        -0.0384
      7 C7         -1.0262   -0.6244    0.2672 C.ar      1 <0>        -0.0488
      8 C8         -1.0104    0.2447    1.4695 C.ar      1 <0>        -0.0806
      9 C9         -0.2244    1.4078    1.4775 C.ar      1 <0>        -0.0521
     10 C10        -0.1917    2.2223    2.5655 C.ar      1 <0>        -0.1192
     11 C11        -0.9517    1.9032    3.7018 C.ar      1 <0>         0.2191
     12 C12        -1.7497    0.7294    3.7038 C.ar      1 <0>        -0.2165
     13 C13        -1.7748   -0.0948    2.5716 C.ar      1 <0>        -0.0343
     14 C14        -2.5023    0.4336    4.8565 C.ar      1 <0>         0.2445
     15 N1         -2.4326    1.2581    5.8805 N.ar      1 <0>        -0.5576
     16 C15        -1.6731    2.3512    5.8442 C.ar      1 <0>         0.5708
     17 N2         -0.9472    2.6789    4.7928 N.ar      1 <0>        -0.5743
     18 N3         -1.6441    3.1763    6.9538 N.pl3     1 <0>        -0.6989
     19 C16        -2.4390    2.8401    8.1376 C.3       1 <0>         0.1028
     20 C17        -0.6252   -4.2620   -0.6117 C.2       1 <0>         0.5650
     21 O1         -0.4393   -4.7559    0.4835 O.2       1 <0>        -0.5145
     22 N4         -0.6362   -5.0430   -1.7100 N.am      1 <0>        -0.6723
     23 C18        -0.3344   -6.4063   -1.6028 C.ar      1 <0>         0.1234
     24 C19         0.3741   -7.0424   -2.6136 C.ar      1 <0>        -0.1045
     25 C20         0.6718   -8.3866   -2.5070 C.ar      1 <0>        -0.1915
     26 C21         0.2628   -9.1015   -1.3907 C.ar      1 <0>         0.1021
     27 C22        -0.4454   -8.4668   -0.3808 C.ar      1 <0>        -0.1221
     28 C23        -0.7384   -7.1213   -0.4831 C.ar      1 <0>        -0.0755
     29 O2          0.5559  -10.4252   -1.2867 O.3       1 <0>        -0.2981
     30 C24         1.3852  -10.9881   -2.3053 C.3       1 <0>         0.0752
     31 C25         0.5199  -11.4033   -3.4986 C.3       1 <0>        -0.1785
     32 C26         1.4024  -12.0771   -4.5516 C.3       1 <0>        -0.0027
     33 N5          2.0418  -13.2645   -3.9723 N.4       1 <0>        -0.3875
     34 C27         2.9290  -12.8660   -2.8729 C.3       1 <0>        -0.0015
     35 C28         2.1052  -12.2227   -1.7553 C.3       1 <0>        -0.1456
     36 C29         2.8256  -13.9511   -5.0077 C.3       1 <0>        -0.0477
     37 H1         -0.5040    1.9122   -1.2798 H         1 <0>         0.0804
     38 H2         -2.1076    1.6087   -1.9900 H         1 <0>         0.0733
     39 H3         -1.9360    1.7995   -0.2287 H         1 <0>         0.0769
     40 H4         -1.4188   -0.4391   -3.0891 H         1 <0>         0.1347
     41 H5         -1.0621   -2.8608   -2.8766 H         1 <0>         0.1252
     42 H6         -0.6642   -2.4305    1.3707 H         1 <0>         0.1403
     43 H7          0.3630    1.6591    0.6068 H         1 <0>         0.1338
     44 H8          0.4184    3.1133    2.5557 H         1 <0>         0.1403
     45 H9         -2.3814   -0.9883    2.5605 H         1 <0>         0.1358
     46 H10        -3.1228   -0.4493    4.8995 H         1 <0>         0.1786
     47 H11        -1.0974    3.9775    6.9483 H         1 <0>         0.4174
     48 H12        -2.2893    3.6008    8.9038 H         1 <0>         0.0787
     49 H13        -3.4941    2.7995    7.8671 H         1 <0>         0.0611
     50 H14        -2.1250    1.8699    8.5225 H         1 <0>         0.0609
     51 H15        -0.8532   -4.6609   -2.5747 H         1 <0>         0.4121
     52 H16         0.6919   -6.4861   -3.4830 H         1 <0>         0.1321
     53 H17         1.2228   -8.8815   -3.2930 H         1 <0>         0.1279
     54 H18        -0.7640   -9.0242    0.4876 H         1 <0>         0.1383
     55 H19        -1.2857   -6.6262    0.3055 H         1 <0>         0.1508
     56 H20         2.1204  -10.2500   -2.6260 H         1 <0>         0.0903
     57 H21        -0.2477  -12.1020   -3.1660 H         1 <0>         0.1019
     58 H22         0.0475  -10.5209   -3.9302 H         1 <0>         0.1187
     59 H23         0.7895  -12.3738   -5.4028 H         1 <0>         0.1373
     60 H24         2.1694  -11.3775   -4.8837 H         1 <0>         0.1306
     61 H25         3.4431  -13.7452   -2.4846 H         1 <0>         0.1404
     62 H26         3.6635  -12.1496   -3.2408 H         1 <0>         0.1318
     63 H27         2.7660  -11.9259   -0.9408 H         1 <0>         0.1227
     64 H28         1.3705  -12.9384   -1.3865 H         1 <0>         0.1014
     65 H29         3.5909  -13.2764   -5.3913 H         1 <0>         0.1225
     66 H30         3.3009  -14.8331   -4.5785 H         1 <0>         0.1259
     67 H31         2.1666  -14.2533   -5.8217 H         1 <0>         0.1254
     68 H32         1.3321  -13.8896   -3.6207 H         1 <0>         0.4272
@<TRIPOS>BOND
     1    1    2 1
     2    1   37 1
     3    1   38 1
     4    1   39 1
     5    2    7 ar
     6    2    3 ar
     7    3    4 ar
     8    3   40 1
     9    4    5 ar
    10    4   41 1
    11    5    6 ar
    12    5   20 1
    13    6    7 ar
    14    6   42 1
    15    7    8 1
    16    8   13 ar
    17    8    9 ar
    18    9   10 ar
    19    9   43 1
    20   10   11 ar
    21   10   44 1
    22   11   17 ar
    23   11   12 ar
    24   12   13 ar
    25   12   14 ar
    26   13   45 1
    27   14   15 ar
    28   14   46 1
    29   15   16 ar
    30   16   17 ar
    31   16   18 1
    32   18   19 1
    33   18   47 1
    34   19   48 1
    35   19   49 1
    36   19   50 1
    37   20   21 2
    38   20   22 am
    39   22   23 1
    40   22   51 1
    41   23   28 ar
    42   23   24 ar
    43   24   25 ar
    44   24   52 1
    45   25   26 ar
    46   25   53 1
    47   26   27 ar
    48   26   29 1
    49   27   28 ar
    50   27   54 1
    51   28   55 1
    52   29   30 1
    53   30   35 1
    54   30   31 1
    55   30   56 1
    56   31   32 1
    57   31   57 1
    58   31   58 1
    59   32   33 1
    60   32   59 1
    61   32   60 1
    62   33   34 1
    63   33   36 1
    64   33   68 1
    65   34   35 1
    66   34   61 1
    67   34   62 1
    68   35   63 1
    69   35   64 1
    70   36   65 1
    71   36   66 1
    72   36   67 1
@<TRIPOS>MOLECULE
CHEMBL386167
   36    38     0     0     0
SMALL
USER_CHARGES

@<TRIPOS>ATOM
      1 C1         -2.3214    0.0988    0.8125 C.3       1 <0>        -0.1150
      2 C2         -1.1015   -0.6764    0.3862 C.ar      1 <0>        -0.0615
      3 C3         -1.0989   -1.3544   -0.8176 C.ar      1 <0>        -0.1112
      4 C4          0.0196   -2.0660   -1.2100 C.ar      1 <0>        -0.0935
      5 C5          1.1396   -2.1024   -0.3993 C.ar      1 <0>        -0.1127
      6 C6          1.1438   -1.4270    0.8061 C.ar      1 <0>        -0.0202
      7 C7          0.0229   -0.7052    1.2000 C.ar      1 <0>         0.1381
      8 N1          0.0256   -0.0146    2.4166 N.am      1 <0>        -0.6795
      9 C8         -0.3544   -0.6409    3.5479 C.2       1 <0>         0.6236
     10 O1         -0.6124   -1.8306    3.5278 O.2       1 <0>        -0.5023
     11 C9         -0.4568    0.1087    4.7999 C.2       1 <0>        -0.3033
     12 C10        -0.8180   -0.3271    6.0673 C.2       1 <0>         0.1686
     13 N2         -0.8226    0.5774    7.0138 N.2       1 <0>        -0.5261
     14 C11        -0.5000    1.8344    6.7686 C.2       1 <0>         0.2968
     15 S1         -0.1443    1.8369    5.1237 S.3       1 <0>         0.1585
     16 N3         -0.4581    2.8953    7.6546 N.am      1 <0>        -0.6162
     17 C12        -0.7723    2.7034    8.9511 C.2       1 <0>         0.5706
     18 O2         -1.0926    1.5970    9.3419 O.2       1 <0>        -0.4569
     19 C13        -0.7277    3.8321    9.8938 C.2       1 <0>        -0.1851
     20 C14        -1.0520    3.6638   11.2898 C.2       1 <0>        -0.1027
     21 C15        -0.9728    4.7759   12.0475 C.2       1 <0>        -0.2063
     22 S2         -0.4676    6.0230   10.8828 S.3       1 <0>         0.2141
     23 C16        -0.3690    5.0979    9.4865 C.2       1 <0>        -0.2169
     24 Cl1         2.5494   -1.4738    1.8239 Cl        1 <0>        -0.0568
     25 H1         -2.2507    1.1210    0.4407 H         1 <0>         0.0771
     26 H2         -3.2141   -0.3752    0.4044 H         1 <0>         0.0747
     27 H3         -2.3820    0.1114    1.9007 H         1 <0>         0.0668
     28 H4         -1.9719   -1.3287   -1.4528 H         1 <0>         0.1353
     29 H5          0.0186   -2.5950   -2.1516 H         1 <0>         0.1374
     30 H6          2.0116   -2.6595   -0.7086 H         1 <0>         0.1388
     31 H7          0.3010    0.9150    2.4460 H         1 <0>         0.4079
     32 H8         -1.0812   -1.3563    6.2620 H         1 <0>         0.1917
     33 H9         -0.2026    3.7776    7.3430 H         1 <0>         0.4262
     34 H10        -1.3401    2.7078   11.7013 H         1 <0>         0.1548
     35 H11        -1.1683    4.8838   13.1042 H         1 <0>         0.1950
     36 H12        -0.0902    5.4215    8.4946 H         1 <0>         0.1903
@<TRIPOS>BOND
     1    1    2 1
     2    1   25 1
     3    1   26 1
     4    1   27 1
     5    2    7 ar
     6    2    3 ar
     7    3    4 ar
     8    3   28 1
     9    4    5 ar
    10    4   29 1
    11    5    6 ar
    12    5   30 1
    13    6    7 ar
    14    6   24 1
    15    7    8 1
    16    8    9 am
    17    8   31 1
    18    9   10 2
    19    9   11 1
    20   11   15 1
    21   11   12 2
    22   12   13 1
    23   12   32 1
    24   13   14 2
    25   14   15 1
    26   14   16 1
    27   16   17 am
    28   16   33 1
    29   17   18 2
    30   17   19 1
    31   19   23 2
    32   19   20 1
    33   20   21 2
    34   20   34 1
    35   21   22 1
    36   21   35 1
    37   22   23 1
    38   23   36 1
@<TRIPOS>MOLECULE
CHEMBL263528
   50    53     0     0     0
SMALL
USER_CHARGES

@<TRIPOS>ATOM
      1 C1         -0.0167    1.3780    0.0096 C.ar      1 <0>        -0.0917
      2 C2          1.1670    2.0883    0.0021 C.ar      1 <0>        -0.1354
      3 C3          2.3857    1.4113   -0.0131 C.ar      1 <0>        -0.0056
      4 C4          2.4038    0.0179   -0.0207 C.ar      1 <0>        -0.1351
      5 C5          1.2114   -0.6862   -0.0131 C.ar      1 <0>         0.1166
      6 C6          0.0021   -0.0041    0.0020 C.ar      1 <0>        -0.1407
      7 O1          1.2248   -2.0451   -0.0209 O.3       1 <0>        -0.4967
      8 C7          3.6585    2.1714   -0.0217 C.2       1 <0>        -0.0746
      9 C8          4.7233    1.9797    0.7955 C.2       1 <0>         0.0379
     10 N1          5.7092    2.8751    0.4836 N.pl3     1 <0>        -0.4574
     11 C9          5.3111    3.6785   -0.5507 C.ar      1 <0>         0.3534
     12 C10         4.0162    3.2757   -0.9210 C.ar      1 <0>        -0.2566
     13 C11         3.3776    3.9445   -1.9737 C.ar      1 <0>         0.4995
     14 N2          4.0285    4.9328   -2.5813 N.ar      1 <0>        -0.5956
     15 C12         5.2463    5.2778   -2.2044 C.ar      1 <0>         0.3747
     16 N3          5.8796    4.6827   -1.2167 N.ar      1 <0>        -0.5789
     17 N4          2.1021    3.5856   -2.3715 N.pl3     1 <0>        -0.8253
     18 C13         7.0056    2.9623    1.1603 C.3       1 <0>         0.1324
     19 C14         7.7469    1.6296    1.0206 C.3       1 <0>        -0.1583
     20 C15         9.0640    1.7011    1.7963 C.3       1 <0>        -0.0012
     21 N5          8.7875    1.9626    3.2139 N.4       1 <0>        -0.3726
     22 C16         8.1410    3.2720    3.3620 C.3       1 <0>        -0.0136
     23 C17         6.7884    3.2610    2.6465 C.3       1 <0>        -0.1539
     24 C18        10.0487    1.9530    3.9671 C.3       1 <0>        -0.0333
     25 C19         9.7563    2.0988    5.4383 C.2       1 <0>         0.5078
     26 O2          8.6102    2.2008    5.8216 O.2       1 <0>        -0.5288
     27 N6         10.7685    2.1160    6.3280 N.am      1 <0>        -0.8238
     28 H1         -0.9600    1.9037    0.0260 H         1 <0>         0.1352
     29 H2          1.1490    3.1681    0.0077 H         1 <0>         0.1285
     30 H3          3.3451   -0.5114   -0.0329 H         1 <0>         0.1296
     31 H4         -0.9268   -0.5551    0.0082 H         1 <0>         0.1346
     32 H5          1.2373   -2.4434    0.8601 H         1 <0>         0.3945
     33 H6          4.7837    1.2339    1.5744 H         1 <0>         0.1775
     34 H7          5.7399    6.0857   -2.7240 H         1 <0>         0.2038
     35 H8          1.6387    2.8628   -1.9202 H         1 <0>         0.4137
     36 H9          1.6713    4.0568   -3.1018 H         1 <0>         0.4119
     37 H10         7.5983    3.7593    0.7112 H         1 <0>         0.1247
     38 H11         7.1303    0.8262    1.4236 H         1 <0>         0.0976
     39 H12         7.9544    1.4371   -0.0320 H         1 <0>         0.1238
     40 H13         9.5944    0.7538    1.6988 H         1 <0>         0.1413
     41 H14         9.6799    2.5046    1.3924 H         1 <0>         0.1380
     42 H15         7.9900    3.4846    4.4203 H         1 <0>         0.1543
     43 H16         8.7766    4.0421    2.9247 H         1 <0>         0.1323
     44 H17         6.3108    4.2347    2.7561 H         1 <0>         0.1211
     45 H18         6.1519    2.4914    3.0832 H         1 <0>         0.0975
     46 H19        10.5694    1.0116    3.7918 H         1 <0>         0.1641
     47 H20        10.6753    2.7817    3.6373 H         1 <0>         0.1631
     48 H21        11.6852    2.0344    6.0215 H         1 <0>         0.4146
     49 H22        10.5803    2.2098    7.2750 H         1 <0>         0.4249
     50 H23         8.1773    1.2446    3.5746 H         1 <0>         0.4304
@<TRIPOS>BOND
     1    1    6 ar
     2    1    2 ar
     3    1   28 1
     4    2    3 ar
     5    2   29 1
     6    3    4 ar
     7    3    8 1
     8    4    5 ar
     9    4   30 1
    10    5    6 ar
    11    5    7 1
    12    6   31 1
    13    7   32 1
    14    8   12 1
    15    8    9 2
    16    9   10 1
    17    9   33 1
    18   10   11 1
    19   10   18 1
    20   11   16 ar
    21   11   12 ar
    22   12   13 ar
    23   13   14 ar
    24   13   17 1
    25   14   15 ar
    26   15   16 ar
    27   15   34 1
    28   17   35 1
    29   17   36 1
    30   18   23 1
    31   18   19 1
    32   18   37 1
    33   19   20 1
    34   19   38 1
    35   19   39 1
    36   20   21 1
    37   20   40 1
    38   20   41 1
    39   21   22 1
    40   21   24 1
    41   21   50 1
    42   22   23 1
    43   22   42 1
    44   22   43 1
    45   23   44 1
    46   23   45 1
    47   24   25 1
    48   24   46 1
    49   24   47 1
    50   25   26 2
    51   25   27 am
    52   27   48 1
    53   27   49 1
@<TRIPOS>MOLECULE
CHEMBL263528__1
   49    52     0     0     0
SMALL
USER_CHARGES

@<TRIPOS>ATOM
      1 C1         -0.0167    1.3780    0.0096 C.ar      1 <0>        -0.0946
      2 C2          1.1670    2.0883    0.0021 C.ar      1 <0>        -0.1375
      3 C3          2.3857    1.4113   -0.0131 C.ar      1 <0>         0.0113
      4 C4          2.4038    0.0179   -0.0207 C.ar      1 <0>        -0.1360
      5 C5          1.2114   -0.6862   -0.0131 C.ar      1 <0>         0.1146
      6 C6          0.0021   -0.0041    0.0020 C.ar      1 <0>        -0.1480
      7 O1          1.2248   -2.0451   -0.0209 O.3       1 <0>        -0.4987
      8 C7          3.6585    2.1714   -0.0217 C.2       1 <0>        -0.1089
      9 C8          4.7233    1.9797    0.7955 C.2       1 <0>         0.0696
     10 N1          5.7092    2.8751    0.4836 N.pl3     1 <0>        -0.4468
     11 C9          5.3111    3.6785   -0.5507 C.ar      1 <0>         0.3467
     12 C10         4.0162    3.2757   -0.9210 C.ar      1 <0>        -0.2514
     13 C11         3.3776    3.9445   -1.9737 C.ar      1 <0>         0.4930
     14 N2          4.0285    4.9328   -2.5813 N.ar      1 <0>        -0.6019
     15 C12         5.2463    5.2778   -2.2044 C.ar      1 <0>         0.3614
     16 N3          5.8796    4.6827   -1.2167 N.ar      1 <0>        -0.5707
     17 N4          2.1021    3.5856   -2.3715 N.pl3     1 <0>        -0.8316
     18 C13         7.0056    2.9623    1.1603 C.3       1 <0>         0.1360
     19 C14         7.7474    1.6303    1.0188 C.3       1 <0>        -0.1238
     20 C15         9.0735    1.7072    1.7788 C.3       1 <0>         0.0599
     21 N5          8.8115    1.9940    3.1950 N.3       1 <0>        -0.5228
     22 C16         8.1420    3.2906    3.3591 C.3       1 <0>         0.0537
     23 C17         6.7881    3.2610    2.6463 C.3       1 <0>        -0.1210
     24 C18        10.0509    1.9382    3.9815 C.3       1 <0>         0.0340
     25 C19         9.7169    1.9920    5.4500 C.2       1 <0>         0.5160
     26 O2          8.5602    2.0691    5.8063 O.2       1 <0>        -0.5233
     27 N6         10.7036    1.9543    6.3674 N.am      1 <0>        -0.8579
     28 H1         -0.9600    1.9037    0.0260 H         1 <0>         0.1313
     29 H2          1.1490    3.1681    0.0077 H         1 <0>         0.1277
     30 H3          3.3451   -0.5114   -0.0329 H         1 <0>         0.1312
     31 H4         -0.9268   -0.5551    0.0082 H         1 <0>         0.1305
     32 H5          1.2373   -2.4434    0.8601 H         1 <0>         0.3931
     33 H6          4.7837    1.2339    1.5744 H         1 <0>         0.1784
     34 H7          5.7399    6.0857   -2.7240 H         1 <0>         0.1990
     35 H8          1.6387    2.8628   -1.9202 H         1 <0>         0.4119
     36 H9          1.6713    4.0568   -3.1018 H         1 <0>         0.4071
     37 H10         7.5979    3.7597    0.7114 H         1 <0>         0.1059
     38 H11         7.1367    0.8279    1.4326 H         1 <0>         0.0821
     39 H12         7.9430    1.4329   -0.0352 H         1 <0>         0.0779
     40 H13         9.5976    0.7554    1.6919 H         1 <0>         0.0861
     41 H14         9.6893    2.5007    1.3555 H         1 <0>         0.0416
     42 H15         7.9895    3.4889    4.4201 H         1 <0>         0.1017
     43 H16         8.7621    4.0767    2.9284 H         1 <0>         0.0347
     44 H17         6.2983    4.2287    2.7550 H         1 <0>         0.0756
     45 H18         6.1623    2.4843    3.0857 H         1 <0>         0.0824
     46 H19        10.5786    1.0099    3.7626 H         1 <0>         0.1081
     47 H20        10.6845    2.7862    3.7217 H         1 <0>         0.0673
     48 H21        11.6287    1.8925    6.0824 H         1 <0>         0.4014
     49 H22        10.4885    1.9889    7.3126 H         1 <0>         0.4041
@<TRIPOS>BOND
     1    1    6 ar
     2    1    2 ar
     3    1   28 1
     4    2    3 ar
     5    2   29 1
     6    3    4 ar
     7    3    8 1
     8    4    5 ar
     9    4   30 1
    10    5    6 ar
    11    5    7 1
    12    6   31 1
    13    7   32 1
    14    8   12 1
    15    8    9 2
    16    9   10 1
    17    9   33 1
    18   10   11 1
    19   10   18 1
    20   11   16 ar
    21   11   12 ar
    22   12   13 ar
    23   13   14 ar
    24   13   17 1
    25   14   15 ar
    26   15   16 ar
    27   15   34 1
    28   17   35 1
    29   17   36 1
    30   18   23 1
    31   18   19 1
    32   18   37 1
    33   19   20 1
    34   19   38 1
    35   19   39 1
    36   20   21 1
    37   20   40 1
    38   20   41 1
    39   21   22 1
    40   21   24 1
    41   22   23 1
    42   22   42 1
    43   22   43 1
    44   23   44 1
    45   23   45 1
    46   24   25 1
    47   24   46 1
    48   24   47 1
    49   25   26 2
    50   25   27 am
    51   27   48 1
    52   27   49 1
@<TRIPOS>MOLECULE
CHEMBL49860
   64    65     0     0     0
SMALL
USER_CHARGES

@<TRIPOS>ATOM
      1 C1          0.1381    0.9326    0.2434 C.ar      1 <0>        -0.1546
      2 C2          1.3845    1.5312    0.2847 C.ar      1 <0>        -0.1028
      3 C3          2.5241    0.7517    0.3885 C.ar      1 <0>         0.1107
      4 C4          2.4117   -0.6359    0.4519 C.ar      1 <0>         0.1946
      5 C5          1.1588   -1.2290    0.4105 C.ar      1 <0>        -0.1966
      6 C6          0.0257   -0.4435    0.3062 C.ar      1 <0>        -0.0946
      7 C7         -1.3352   -1.0893    0.2614 C.3       1 <0>        -0.0929
      8 C8         -1.7140   -1.3801   -1.1922 C.3       1 <0>         0.0901
      9 C9         -3.1229   -1.9122   -1.2473 C.2       1 <0>         0.5248
     10 O1         -3.3171   -3.1048   -1.3518 O.2       1 <0>        -0.4935
     11 N1         -4.1671   -1.0627   -1.1804 N.am      1 <0>        -0.7345
     12 C10        -5.5333   -1.5675   -1.3380 C.3       1 <0>         0.1748
     13 C11        -5.8421   -2.5619   -0.2170 C.3       1 <0>        -0.1138
     14 C12        -5.7103   -1.8614    1.1368 C.3       1 <0>        -0.1167
     15 C13        -6.6965   -0.6937    1.2049 C.3       1 <0>        -0.1199
     16 C14        -6.3877    0.3007    0.0839 C.3       1 <0>        -0.1180
     17 C15        -6.5195   -0.3998   -1.2699 C.3       1 <0>        -0.1165
     18 C16        -5.6631   -2.2575   -2.6715 C.2       1 <0>         0.5442
     19 O2         -6.3666   -3.2395   -2.7802 O.2       1 <0>        -0.5369
     20 N2         -4.9976   -1.7834   -3.7432 N.am      1 <0>        -0.6913
     21 C17        -5.0355   -2.5153   -5.0117 C.3       1 <0>         0.1499
     22 C18        -3.7895   -2.1774   -5.8329 C.3       1 <0>        -0.1509
     23 C19        -2.5637   -2.6834   -5.1171 C.2       1 <0>         0.4957
     24 O3         -2.6755   -3.2577   -4.0548 O.2       1 <0>        -0.4721
     25 N3         -1.3430   -2.4977   -5.6575 N.am      1 <0>        -0.8566
     26 C20        -6.2681   -2.1198   -5.7832 C.2       1 <0>         0.5072
     27 O4         -7.0390   -1.3066   -5.3192 O.2       1 <0>        -0.5270
     28 N4         -6.5138   -2.6698   -6.9889 N.am      1 <0>        -0.8561
     29 N5         -0.7913   -2.3789   -1.7482 N.3       1 <0>        -0.8128
     30 N6          3.5603   -1.4289    0.5565 N.pl3     1 <0>        -0.8653
     31 O5          3.7504    1.3388    0.4283 O.3       1 <0>        -0.6616
     32 P1          4.0973    2.0359    1.8374 P.3       1 <0>         2.0866
     33 O6          2.9713    3.0618    2.2037 O.2       1 <0>        -1.1648
     34 O7          4.1887    0.9403    2.9536 O.3       1 <0>        -1.1648
     35 O8          5.4693    2.7840    1.7262 O.3       1 <0>        -1.1601
     36 H1         -0.7499    1.5425    0.1665 H         1 <0>         0.1073
     37 H2          1.4688    2.6067    0.2354 H         1 <0>         0.1323
     38 H3          1.0681   -2.3041    0.4593 H         1 <0>         0.1059
     39 H4         -1.3134   -2.0221    0.8248 H         1 <0>         0.0676
     40 H5         -2.0713   -0.4164    0.7010 H         1 <0>         0.0695
     41 H6         -1.6495   -0.4615   -1.7753 H         1 <0>         0.0942
     42 H7         -4.0140   -0.1171   -1.0279 H         1 <0>         0.4011
     43 H8         -6.8586   -2.9376   -0.3343 H         1 <0>         0.0726
     44 H9         -5.1395   -3.3939   -0.2656 H         1 <0>         0.0892
     45 H10        -5.9302   -2.5699    1.9354 H         1 <0>         0.0627
     46 H11        -4.6938   -1.4858    1.2541 H         1 <0>         0.0670
     47 H12        -7.7130   -1.0693    1.0877 H         1 <0>         0.0600
     48 H13        -6.6026   -0.1946    2.1694 H         1 <0>         0.0638
     49 H14        -7.0903    1.1327    0.1325 H         1 <0>         0.0683
     50 H15        -5.3712    0.6764    0.2012 H         1 <0>         0.0685
     51 H16        -6.2996    0.3087   -2.0685 H         1 <0>         0.0732
     52 H17        -7.5360   -0.7754   -1.3872 H         1 <0>         0.0819
     53 H18        -4.4934   -0.9575   -3.6747 H         1 <0>         0.4009
     54 H19        -5.0597   -3.5867   -4.8124 H         1 <0>         0.1213
     55 H20        -3.8601   -2.6513   -6.8120 H         1 <0>         0.1053
     56 H21        -3.7179   -1.0969   -5.9566 H         1 <0>         0.1006
     57 H22        -1.2536   -2.0384   -6.5072 H         1 <0>         0.3926
     58 H23        -0.5540   -2.8234   -5.1968 H         1 <0>         0.4076
     59 H24        -5.8972   -3.3202   -7.3600 H         1 <0>         0.4000
     60 H25        -7.3072   -2.4152   -7.4855 H         1 <0>         0.4007
     61 H26         0.1515   -2.0210   -1.7820 H         1 <0>         0.3504
     62 H27        -0.8325   -3.2404   -1.2246 H         1 <0>         0.3430
     63 H28         4.4360   -1.0128    0.5850 H         1 <0>         0.4048
     64 H29         3.4806   -2.3946    0.6005 H         1 <0>         0.3839
@<TRIPOS>BOND
     1    1    6 ar
     2    1    2 ar
     3    1   36 1
     4    2    3 ar
     5    2   37 1
     6    3    4 ar
     7    3   31 1
     8    4    5 ar
     9    4   30 1
    10    5    6 ar
    11    5   38 1
    12    6    7 1
    13    7    8 1
    14    7   39 1
    15    7   40 1
    16    8    9 1
    17    8   29 1
    18    8   41 1
    19    9   10 2
    20    9   11 am
    21   11   12 1
    22   11   42 1
    23   12   17 1
    24   12   13 1
    25   12   18 1
    26   13   14 1
    27   13   43 1
    28   13   44 1
    29   14   15 1
    30   14   45 1
    31   14   46 1
    32   15   16 1
    33   15   47 1
    34   15   48 1
    35   16   17 1
    36   16   49 1
    37   16   50 1
    38   17   51 1
    39   17   52 1
    40   18   19 2
    41   18   20 am
    42   20   21 1
    43   20   53 1
    44   21   22 1
    45   21   26 1
    46   21   54 1
    47   22   23 1
    48   22   55 1
    49   22   56 1
    50   23   24 2
    51   23   25 am
    52   25   57 1
    53   25   58 1
    54   26   27 2
    55   26   28 am
    56   28   59 1
    57   28   60 1
    58   29   61 1
    59   29   62 1
    60   30   63 1
    61   30   64 1
    62   31   32 1
    63   32   33 2
    64   32   34 1
    65   32   35 1
@<TRIPOS>MOLECULE
CHEMBL49860__1
   65    66     0     0     0
SMALL
USER_CHARGES

@<TRIPOS>ATOM
      1 C1          0.1294    0.9402    0.2538 C.ar      1 <0>        -0.1339
      2 C2          1.3782    1.5337    0.2968 C.ar      1 <0>        -0.1046
      3 C3          2.5128    0.7512    0.4290 C.ar      1 <0>         0.1354
      4 C4          2.3930   -0.6343    0.5190 C.ar      1 <0>         0.2025
      5 C5          1.1377   -1.2223    0.4756 C.ar      1 <0>        -0.2243
      6 C6          0.0097   -0.4338    0.3430 C.ar      1 <0>        -0.1463
      7 C7         -1.3537   -1.0741    0.2960 C.3       1 <0>        -0.0734
      8 C8         -1.7179   -1.3925   -1.1555 C.3       1 <0>         0.0142
      9 C9         -3.1287   -1.9190   -1.2155 C.2       1 <0>         0.5062
     10 O1         -3.3275   -3.1126   -1.2982 O.2       1 <0>        -0.4885
     11 N1         -4.1694   -1.0635   -1.1774 N.am      1 <0>        -0.7062
     12 C10        -5.5363   -1.5653   -1.3389 C.3       1 <0>         0.1745
     13 C11        -5.8516   -2.5567   -0.2171 C.3       1 <0>        -0.1178
     14 C12        -5.7228   -1.8539    1.1358 C.3       1 <0>        -0.1170
     15 C13        -6.7064   -0.6836    1.1982 C.3       1 <0>        -0.1250
     16 C14        -6.3911    0.3079    0.0764 C.3       1 <0>        -0.1190
     17 C15        -6.5199   -0.3950   -1.2765 C.3       1 <0>        -0.1200
     18 C16        -5.6631   -2.2575   -2.6715 C.2       1 <0>         0.5375
     19 O2         -6.3641   -3.2413   -2.7795 O.2       1 <0>        -0.5167
     20 N2         -4.9976   -1.7834   -3.7432 N.am      1 <0>        -0.6991
     21 C17        -5.0355   -2.5153   -5.0117 C.3       1 <0>         0.1474
     22 C18        -3.7895   -2.1774   -5.8329 C.3       1 <0>        -0.1540
     23 C19        -2.5637   -2.6834   -5.1171 C.2       1 <0>         0.5155
     24 O3         -2.6755   -3.2577   -4.0548 O.2       1 <0>        -0.5298
     25 N3         -1.3430   -2.4977   -5.6575 N.am      1 <0>        -0.8538
     26 C20        -6.2681   -2.1198   -5.7832 C.2       1 <0>         0.5047
     27 O4         -7.0390   -1.3066   -5.3192 O.2       1 <0>        -0.5216
     28 N4         -6.5138   -2.6698   -6.9889 N.am      1 <0>        -0.8532
     29 N5         -0.7940   -2.4065   -1.6811 N.4       1 <0>        -0.6173
     30 N6          3.5365   -1.4303    0.6523 N.pl3     1 <0>        -0.8585
     31 O5          3.7413    1.3333    0.4706 O.3       1 <0>        -0.6538
     32 P1          4.0761    2.0572    1.8692 P.3       1 <0>         2.0687
     33 O6          2.9511    3.0954    2.2022 O.2       1 <0>        -1.1548
     34 O7          4.1499    0.9839    3.0081 O.3       1 <0>        -1.1553
     35 O8          5.4528    2.7965    1.7582 O.3       1 <0>        -1.1466
     36 H1         -0.7547    1.5525    0.1547 H         1 <0>         0.1163
     37 H2          1.4682    2.6077    0.2269 H         1 <0>         0.1420
     38 H3          1.0413   -2.2957    0.5451 H         1 <0>         0.1084
     39 H4         -1.3427   -1.9955    0.8783 H         1 <0>         0.0968
     40 H5         -2.0914   -0.3891    0.7139 H         1 <0>         0.1159
     41 H6         -1.6425   -0.4861   -1.7562 H         1 <0>         0.1599
     42 H7         -4.0134   -0.1156   -1.0430 H         1 <0>         0.4125
     43 H8         -6.8686   -2.9300   -0.3373 H         1 <0>         0.0833
     44 H9         -5.1509   -3.3905   -0.2615 H         1 <0>         0.0903
     45 H10        -5.9474   -2.5603    1.9350 H         1 <0>         0.0695
     46 H11        -4.7058   -1.4806    1.2560 H         1 <0>         0.0629
     47 H12        -7.7234   -1.0569    1.0780 H         1 <0>         0.0654
     48 H13        -6.6146   -0.1829    2.1621 H         1 <0>         0.0695
     49 H14        -7.0918    1.1416    0.1208 H         1 <0>         0.0757
     50 H15        -5.3741    0.6812    0.1966 H         1 <0>         0.0661
     51 H16        -6.2953    0.3114   -2.0757 H         1 <0>         0.0779
     52 H17        -7.5369   -0.7683   -1.3967 H         1 <0>         0.0915
     53 H18        -4.4934   -0.9575   -3.6747 H         1 <0>         0.3983
     54 H19        -5.0597   -3.5867   -4.8124 H         1 <0>         0.1258
     55 H20        -3.8601   -2.6513   -6.8120 H         1 <0>         0.1185
     56 H21        -3.7179   -1.0969   -5.9566 H         1 <0>         0.1122
     57 H22        -1.2536   -2.0384   -6.5072 H         1 <0>         0.4098
     58 H23        -0.5540   -2.8234   -5.1968 H         1 <0>         0.4016
     59 H24        -5.8972   -3.3202   -7.3600 H         1 <0>         0.4004
     60 H25        -7.3072   -2.4152   -7.4855 H         1 <0>         0.4061
     61 H26        -1.0342   -2.6164   -2.6383 H         1 <0>         0.4274
     62 H27         0.1505   -2.0539   -1.6409 H         1 <0>         0.4439
     63 H28         4.4138   -1.0177    0.6822 H         1 <0>         0.4118
     64 H29         3.4516   -2.3946    0.7149 H         1 <0>         0.3873
     65 H30        -0.8638   -3.2455   -1.1250 H         1 <0>         0.4369
@<TRIPOS>BOND
     1    1    6 ar
     2    1    2 ar
     3    1   36 1
     4    2    3 ar
     5    2   37 1
     6    3    4 ar
     7    3   31 1
     8    4    5 ar
     9    4   30 1
    10    5    6 ar
    11    5   38 1
    12    6    7 1
    13    7    8 1
    14    7   39 1
    15    7   40 1
    16    8    9 1
    17    8   29 1
    18    8   41 1
    19    9   10 2
    20    9   11 am
    21   11   12 1
    22   11   42 1
    23   12   17 1
    24   12   13 1
    25   12   18 1
    26   13   14 1
    27   13   43 1
    28   13   44 1
    29   14   15 1
    30   14   45 1
    31   14   46 1
    32   15   16 1
    33   15   47 1
    34   15   48 1
    35   16   17 1
    36   16   49 1
    37   16   50 1
    38   17   51 1
    39   17   52 1
    40   18   19 2
    41   18   20 am
    42   20   21 1
    43   20   53 1
    44   21   22 1
    45   21   26 1
    46   21   54 1
    47   22   23 1
    48   22   55 1
    49   22   56 1
    50   23   24 2
    51   23   25 am
    52   25   57 1
    53   25   58 1
    54   26   27 2
    55   26   28 am
    56   28   59 1
    57   28   60 1
    58   29   61 1
    59   29   62 1
    60   29   65 1
    61   30   63 1
    62   30   64 1
    63   31   32 1
    64   32   33 2
    65   32   34 1
    66   32   35 1
@<TRIPOS>MOLECULE
CHEMBL49860__2
   64    65     0     0     0
SMALL
USER_CHARGES

@<TRIPOS>ATOM
      1 C1          0.1327    0.9541    0.2285 C.ar      1 <0>        -0.1545
      2 C2          1.3756    1.5599    0.2665 C.ar      1 <0>        -0.1028
      3 C3          2.5207    0.7867    0.3557 C.ar      1 <0>         0.1106
      4 C4          2.4174   -0.6021    0.4075 C.ar      1 <0>         0.1947
      5 C5          1.1678   -1.2025    0.3694 C.ar      1 <0>        -0.1971
      6 C6          0.0292   -0.4232    0.2799 C.ar      1 <0>        -0.0952
      7 C7         -1.3279   -1.0771    0.2386 C.3       1 <0>        -0.0922
      8 C8         -1.7149   -1.3575   -1.2148 C.3       1 <0>         0.0879
      9 C9         -3.1209   -1.8978   -1.2650 C.2       1 <0>         0.5207
     10 O1         -3.3084   -3.0906   -1.3787 O.2       1 <0>        -0.4898
     11 N1         -4.1698   -1.0555   -1.1834 N.am      1 <0>        -0.7343
     12 C10        -5.5338   -1.5671   -1.3382 C.3       1 <0>         0.1744
     13 C11        -5.8352   -2.5633   -0.2167 C.3       1 <0>        -0.1137
     14 C12        -5.7039   -1.8624    1.1370 C.3       1 <0>        -0.1170
     15 C13        -6.6958   -0.6996    1.2075 C.3       1 <0>        -0.1197
     16 C14        -6.3944    0.2966    0.0860 C.3       1 <0>        -0.1182
     17 C15        -6.5257   -0.4044   -1.2676 C.3       1 <0>        -0.1154
     18 C16        -5.6631   -2.2575   -2.6715 C.2       1 <0>         0.5446
     19 O2         -6.3662   -3.2398   -2.7801 O.2       1 <0>        -0.5375
     20 N2         -4.9976   -1.7834   -3.7432 N.am      1 <0>        -0.6927
     21 C17        -5.0355   -2.5153   -5.0117 C.3       1 <0>         0.1485
     22 C18        -4.7777   -1.5465   -6.1675 C.3       1 <0>        -0.1514
     23 C19        -5.9052   -0.5498   -6.2484 C.2       1 <0>         0.5154
     24 O3         -6.8244   -0.6086   -5.4594 O.2       1 <0>        -0.5240
     25 N3         -5.8920    0.4069   -7.1976 N.am      1 <0>        -0.8564
     26 C20        -3.9737   -3.5848   -5.0065 C.2       1 <0>         0.4841
     27 O4         -3.2561   -3.7221   -4.0385 O.2       1 <0>        -0.4700
     28 N4         -3.8218   -4.3887   -6.0775 N.am      1 <0>        -0.8627
     29 N5         -0.7900   -2.3455   -1.7860 N.3       1 <0>        -0.8187
     30 N6          3.5715   -1.3888    0.4972 N.pl3     1 <0>        -0.8652
     31 O5          3.7435    1.3811    0.3922 O.3       1 <0>        -0.6618
     32 P1          4.0958    2.0679    1.8051 P.3       1 <0>         2.0869
     33 O6          2.9661    3.0835    2.1881 O.2       1 <0>        -1.1648
     34 O7          4.2018    0.9631    2.9108 O.3       1 <0>        -1.1649
     35 O8          5.4624    2.8255    1.6911 O.3       1 <0>        -1.1603
     36 H1         -0.7596    1.5590    0.1631 H         1 <0>         0.1077
     37 H2          1.4529    2.6364    0.2262 H         1 <0>         0.1325
     38 H3          1.0842   -2.2786    0.4094 H         1 <0>         0.1062
     39 H4         -1.2964   -2.0147    0.7936 H         1 <0>         0.0679
     40 H5         -2.0652   -0.4127    0.6893 H         1 <0>         0.0706
     41 H6         -1.6601   -0.4334   -1.7902 H         1 <0>         0.0967
     42 H7         -4.0216   -0.1105   -1.0223 H         1 <0>         0.4013
     43 H8         -6.8500   -2.9439   -0.3318 H         1 <0>         0.0729
     44 H9         -5.1285   -3.3917   -0.2669 H         1 <0>         0.0882
     45 H10        -5.9186   -2.5720    1.9359 H         1 <0>         0.0628
     46 H11        -4.6890   -1.4817    1.2521 H         1 <0>         0.0674
     47 H12        -7.7107   -1.0802    1.0924 H         1 <0>         0.0601
     48 H13        -6.6023   -0.2002    2.1719 H         1 <0>         0.0638
     49 H14        -7.1011    1.1250    0.1363 H         1 <0>         0.0681
     50 H15        -5.3796    0.6772    0.2011 H         1 <0>         0.0686
     51 H16        -6.3110    0.3053   -2.0666 H         1 <0>         0.0726
     52 H17        -7.5406   -0.7850   -1.3828 H         1 <0>         0.0819
     53 H18        -4.4934   -0.9575   -3.6747 H         1 <0>         0.4003
     54 H19        -6.0152   -2.9766   -5.1359 H         1 <0>         0.1175
     55 H20        -3.8387   -1.0197   -5.9975 H         1 <0>         0.1095
     56 H21        -4.7176   -2.1038   -7.1023 H         1 <0>         0.1118
     57 H22        -5.1569    0.4540   -7.8287 H         1 <0>         0.4020
     58 H23        -6.6178    1.0484   -7.2497 H         1 <0>         0.4026
     59 H24        -4.3957   -4.2789   -6.8517 H         1 <0>         0.3927
     60 H25        -3.1384   -5.0771   -6.0742 H         1 <0>         0.4013
     61 H26         0.1503   -1.9815   -1.8230 H         1 <0>         0.3530
     62 H27        -0.8222   -3.2118   -1.2697 H         1 <0>         0.3437
     63 H28         4.4448   -0.9674    0.5234 H         1 <0>         0.4049
     64 H29         3.4980   -2.3553    0.5332 H         1 <0>         0.3840
@<TRIPOS>BOND
     1    1    6 ar
     2    1    2 ar
     3    1   36 1
     4    2    3 ar
     5    2   37 1
     6    3    4 ar
     7    3   31 1
     8    4    5 ar
     9    4   30 1
    10    5    6 ar
    11    5   38 1
    12    6    7 1
    13    7    8 1
    14    7   39 1
    15    7   40 1
    16    8    9 1
    17    8   29 1
    18    8   41 1
    19    9   10 2
    20    9   11 am
    21   11   12 1
    22   11   42 1
    23   12   17 1
    24   12   13 1
    25   12   18 1
    26   13   14 1
    27   13   43 1
    28   13   44 1
    29   14   15 1
    30   14   45 1
    31   14   46 1
    32   15   16 1
    33   15   47 1
    34   15   48 1
    35   16   17 1
    36   16   49 1
    37   16   50 1
    38   17   51 1
    39   17   52 1
    40   18   19 2
    41   18   20 am
    42   20   21 1
    43   20   53 1
    44   21   22 1
    45   21   26 1
    46   21   54 1
    47   22   23 1
    48   22   55 1
    49   22   56 1
    50   23   24 2
    51   23   25 am
    52   25   57 1
    53   25   58 1
    54   26   27 2
    55   26   28 am
    56   28   59 1
    57   28   60 1
    58   29   61 1
    59   29   62 1
    60   30   63 1
    61   30   64 1
    62   31   32 1
    63   32   33 2
    64   32   34 1
    65   32   35 1
@<TRIPOS>MOLECULE
CHEMBL49860__3
   65    66     0     0     0
SMALL
USER_CHARGES

@<TRIPOS>ATOM
      1 C1          0.1308    0.9589    0.2268 C.ar      1 <0>        -0.1342
      2 C2          1.3733    1.5658    0.2644 C.ar      1 <0>        -0.1046
      3 C3          2.5190    0.7934    0.3537 C.ar      1 <0>         0.1350
      4 C4          2.4166   -0.5954    0.4060 C.ar      1 <0>         0.2025
      5 C5          1.1675   -1.1968    0.3683 C.ar      1 <0>        -0.2238
      6 C6          0.0283   -0.4184    0.2787 C.ar      1 <0>        -0.1458
      7 C7         -1.3283   -1.0733    0.2378 C.3       1 <0>        -0.0731
      8 C8         -1.7154   -1.3545   -1.2154 C.3       1 <0>         0.0152
      9 C9         -3.1209   -1.8958   -1.2652 C.2       1 <0>         0.5015
     10 O1         -3.3076   -3.0888   -1.3785 O.2       1 <0>        -0.4833
     11 N1         -4.1705   -1.0543   -1.1838 N.am      1 <0>        -0.7075
     12 C10        -5.5341   -1.5669   -1.3383 C.3       1 <0>         0.1746
     13 C11        -5.8345   -2.5632   -0.2166 C.3       1 <0>        -0.1168
     14 C12        -5.7035   -1.8621    1.1369 C.3       1 <0>        -0.1172
     15 C13        -6.6963   -0.7000    1.2076 C.3       1 <0>        -0.1248
     16 C14        -6.3959    0.2963    0.0859 C.3       1 <0>        -0.1190
     17 C15        -6.5269   -0.4049   -1.2676 C.3       1 <0>        -0.1191
     18 C16        -5.6631   -2.2575   -2.6715 C.2       1 <0>         0.5390
     19 O2         -6.3659   -3.2400   -2.7800 O.2       1 <0>        -0.5180
     20 N2         -4.9976   -1.7834   -3.7432 N.am      1 <0>        -0.6989
     21 C17        -5.0355   -2.5153   -5.0117 C.3       1 <0>         0.1428
     22 C18        -4.7777   -1.5465   -6.1675 C.3       1 <0>        -0.1521
     23 C19        -5.9052   -0.5498   -6.2484 C.2       1 <0>         0.5136
     24 O3         -6.8244   -0.6086   -5.4594 O.2       1 <0>        -0.5235
     25 N3         -5.8920    0.4069   -7.1976 N.am      1 <0>        -0.8533
     26 C20        -3.9737   -3.5848   -5.0065 C.2       1 <0>         0.5086
     27 O4         -3.2561   -3.7221   -4.0385 O.2       1 <0>        -0.5249
     28 N4         -3.8218   -4.3887   -6.0775 N.am      1 <0>        -0.8518
     29 N5         -0.7898   -2.3420   -1.7864 N.4       1 <0>        -0.6170
     30 N6          3.5713   -1.3813    0.4958 N.pl3     1 <0>        -0.8587
     31 O5          3.7413    1.3887    0.3899 O.3       1 <0>        -0.6541
     32 P1          4.0933    2.0763    1.8024 P.3       1 <0>         2.0692
     33 O6          2.9629    3.0912    2.1853 O.2       1 <0>        -1.1551
     34 O7          4.2003    0.9719    2.9085 O.3       1 <0>        -1.1555
     35 O8          5.4594    2.8348    1.6880 O.3       1 <0>        -1.1469
     36 H1         -0.7619    1.5633    0.1613 H         1 <0>         0.1161
     37 H2          1.4497    2.6423    0.2238 H         1 <0>         0.1418
     38 H3          1.0846   -2.2729    0.4086 H         1 <0>         0.1085
     39 H4         -1.2961   -2.0107    0.7931 H         1 <0>         0.0961
     40 H5         -2.0660   -0.4093    0.6884 H         1 <0>         0.1150
     41 H6         -1.6613   -0.4305   -1.7911 H         1 <0>         0.1612
     42 H7         -4.0229   -0.1091   -1.0229 H         1 <0>         0.4124
     43 H8         -6.8491   -2.9446   -0.3315 H         1 <0>         0.0832
     44 H9         -5.1272   -3.3911   -0.2669 H         1 <0>         0.0881
     45 H10        -5.9175   -2.5718    1.9360 H         1 <0>         0.0694
     46 H11        -4.6889   -1.4806    1.2519 H         1 <0>         0.0634
     47 H12        -7.7109   -1.0815    1.0926 H         1 <0>         0.0654
     48 H13        -6.6029   -0.2005    2.1719 H         1 <0>         0.0695
     49 H14        -7.1031    1.1241    0.1362 H         1 <0>         0.0753
     50 H15        -5.3813    0.6777    0.2008 H         1 <0>         0.0660
     51 H16        -6.3129    0.3049   -2.0667 H         1 <0>         0.0772
     52 H17        -7.5415   -0.7863   -1.3826 H         1 <0>         0.0911
     53 H18        -4.4934   -0.9575   -3.6747 H         1 <0>         0.3980
     54 H19        -6.0152   -2.9766   -5.1359 H         1 <0>         0.1256
     55 H20        -3.8387   -1.0197   -5.9975 H         1 <0>         0.1073
     56 H21        -4.7176   -2.1038   -7.1023 H         1 <0>         0.1154
     57 H22        -5.1569    0.4540   -7.8287 H         1 <0>         0.4032
     58 H23        -6.6178    1.0484   -7.2497 H         1 <0>         0.4068
     59 H24        -4.3957   -4.2789   -6.8517 H         1 <0>         0.4016
     60 H25        -3.1384   -5.0771   -6.0742 H         1 <0>         0.4055
     61 H26        -1.0450   -2.5274   -2.7448 H         1 <0>         0.4334
     62 H27         0.1513   -1.9795   -1.7531 H         1 <0>         0.4451
     63 H28         4.4443   -0.9593    0.5218 H         1 <0>         0.4117
     64 H29         3.4986   -2.3478    0.5321 H         1 <0>         0.3874
     65 H30        -0.8398   -3.1973   -1.2535 H         1 <0>         0.4366
@<TRIPOS>BOND
     1    1    6 ar
     2    1    2 ar
     3    1   36 1
     4    2    3 ar
     5    2   37 1
     6    3    4 ar
     7    3   31 1
     8    4    5 ar
     9    4   30 1
    10    5    6 ar
    11    5   38 1
    12    6    7 1
    13    7    8 1
    14    7   39 1
    15    7   40 1
    16    8    9 1
    17    8   29 1
    18    8   41 1
    19    9   10 2
    20    9   11 am
    21   11   12 1
    22   11   42 1
    23   12   17 1
    24   12   13 1
    25   12   18 1
    26   13   14 1
    27   13   43 1
    28   13   44 1
    29   14   15 1
    30   14   45 1
    31   14   46 1
    32   15   16 1
    33   15   47 1
    34   15   48 1
    35   16   17 1
    36   16   49 1
    37   16   50 1
    38   17   51 1
    39   17   52 1
    40   18   19 2
    41   18   20 am
    42   20   21 1
    43   20   53 1
    44   21   22 1
    45   21   26 1
    46   21   54 1
    47   22   23 1
    48   22   55 1
    49   22   56 1
    50   23   24 2
    51   23   25 am
    52   25   57 1
    53   25   58 1
    54   26   27 2
    55   26   28 am
    56   28   59 1
    57   28   60 1
    58   29   61 1
    59   29   62 1
    60   29   65 1
    61   30   63 1
    62   30   64 1
    63   31   32 1
    64   32   33 2
    65   32   34 1
    66   32   35 1
@<TRIPOS>MOLECULE
CHEMBL49860__4
   64    65     0     0     0
SMALL
USER_CHARGES

@<TRIPOS>ATOM
      1 C1         -0.3107    1.6555   -0.4952 C.ar      1 <0>        -0.1275
      2 C2          0.8351    2.4262   -0.5775 C.ar      1 <0>        -0.1066
      3 C3          2.0803    1.8215   -0.5461 C.ar      1 <0>         0.1092
      4 C4          2.1757    0.4360   -0.4312 C.ar      1 <0>         0.1880
      5 C5          1.0227   -0.3302   -0.3487 C.ar      1 <0>        -0.1983
      6 C6         -0.2170    0.2813   -0.3812 C.ar      1 <0>        -0.0800
      7 C7         -1.4690   -0.5526   -0.2915 C.3       1 <0>        -0.0499
      8 C8         -1.9153   -0.9557   -1.6984 C.3       1 <0>         0.0903
      9 C9         -3.0942   -1.8895   -1.6032 C.2       1 <0>         0.4797
     10 O1         -4.2180   -1.4668   -1.7747 O.2       1 <0>        -0.5038
     11 N1         -2.8998   -3.1944   -1.3275 N.am      1 <0>        -0.7311
     12 C10        -4.0496   -4.0826   -1.1396 C.3       1 <0>         0.1711
     13 C11        -4.8623   -4.1456   -2.4344 C.3       1 <0>        -0.1131
     14 C12        -3.9815   -4.6835   -3.5638 C.3       1 <0>        -0.1145
     15 C13        -3.4887   -6.0861   -3.2023 C.3       1 <0>        -0.1198
     16 C14        -2.6759   -6.0232   -1.9075 C.3       1 <0>        -0.1169
     17 C15        -3.5568   -5.4852   -0.7781 C.3       1 <0>        -0.1177
     18 C16        -4.9172   -3.5527   -0.0272 C.2       1 <0>         0.5437
     19 O2         -6.1218   -3.6809   -0.0841 O.2       1 <0>        -0.5381
     20 N2         -4.3544   -2.9363    1.0310 N.am      1 <0>        -0.6905
     21 C17        -5.2013   -2.3387    2.0663 C.3       1 <0>         0.1496
     22 C18        -4.4315   -1.2209    2.7725 C.3       1 <0>        -0.1545
     23 C19        -4.1517   -0.1085    1.7951 C.2       1 <0>         0.5035
     24 O3         -4.5307   -0.2006    0.6468 O.2       1 <0>        -0.5035
     25 N3         -3.4803    0.9888    2.1972 N.am      1 <0>        -0.8488
     26 C20        -5.5880   -3.3942    3.0701 C.2       1 <0>         0.5085
     27 O4         -5.1948   -4.5334    2.9340 O.2       1 <0>        -0.5285
     28 N4         -6.3707   -3.0721    4.1189 N.am      1 <0>        -0.8548
     29 N5         -2.3009    0.2446   -2.4524 N.3       1 <0>        -0.8027
     30 N6          3.4318   -0.1807   -0.3994 N.pl3     1 <0>        -0.8688
     31 O5          3.2077    2.5780   -0.6278 O.3       1 <0>        -0.6640
     32 P1          3.5600    3.3765    0.7251 P.3       1 <0>         2.0911
     33 O6          2.3296    4.2467    1.1534 O.2       1 <0>        -1.1665
     34 O7          3.8972    2.3533    1.8626 O.3       1 <0>        -1.1671
     35 O8          4.7959    4.3064    0.4760 O.3       1 <0>        -1.1631
     36 H1         -1.2810    2.1293   -0.5157 H         1 <0>         0.1042
     37 H2          0.7583    3.4997   -0.6665 H         1 <0>         0.1289
     38 H3          1.0930   -1.4042   -0.2595 H         1 <0>         0.1025
     39 H4         -1.2678   -1.4482    0.2964 H         1 <0>         0.0577
     40 H5         -2.2580    0.0269    0.1879 H         1 <0>         0.0796
     41 H6         -1.0943   -1.4580   -2.2100 H         1 <0>         0.0952
     42 H7         -1.9985   -3.5454   -1.2535 H         1 <0>         0.4011
     43 H8         -5.7178   -4.8064   -2.2946 H         1 <0>         0.0735
     44 H9         -5.2134   -3.1463   -2.6919 H         1 <0>         0.0877
     45 H10        -4.5605   -4.7284   -4.4862 H         1 <0>         0.0617
     46 H11        -3.1260   -4.0227   -3.7036 H         1 <0>         0.0639
     47 H12        -4.3441   -6.7470   -3.0625 H         1 <0>         0.0611
     48 H13        -2.8611   -6.4694   -4.0069 H         1 <0>         0.0619
     49 H14        -2.3248   -7.0224   -1.6499 H         1 <0>         0.0685
     50 H15        -1.8204   -5.3623   -2.0473 H         1 <0>         0.0665
     51 H16        -2.9777   -5.4403    0.1443 H         1 <0>         0.0751
     52 H17        -4.4122   -6.1461   -0.6383 H         1 <0>         0.0823
     53 H18        -3.3886   -2.8883    1.1072 H         1 <0>         0.4012
     54 H19        -6.1002   -1.9270    1.6074 H         1 <0>         0.1221
     55 H20        -5.0274   -0.8361    3.6001 H         1 <0>         0.1098
     56 H21        -3.4895   -1.6140    3.1550 H         1 <0>         0.1062
     57 H22        -3.1772    1.0625    3.1156 H         1 <0>         0.4017
     58 H23        -3.3002    1.7048    1.5681 H         1 <0>         0.4099
     59 H24        -6.6852   -2.1610    4.2277 H         1 <0>         0.4008
     60 H25        -6.6196   -3.7515    4.7650 H         1 <0>         0.4011
     61 H26        -2.5382    0.0123   -3.4052 H         1 <0>         0.3349
     62 H27        -3.0610    0.7283   -1.9981 H         1 <0>         0.3510
     63 H28         4.2374    0.3565   -0.4575 H         1 <0>         0.4035
     64 H29         3.4966   -1.1452   -0.3194 H         1 <0>         0.3817
@<TRIPOS>BOND
     1    1    6 ar
     2    1    2 ar
     3    1   36 1
     4    2    3 ar
     5    2   37 1
     6    3    4 ar
     7    3   31 1
     8    4    5 ar
     9    4   30 1
    10    5    6 ar
    11    5   38 1
    12    6    7 1
    13    7    8 1
    14    7   39 1
    15    7   40 1
    16    8    9 1
    17    8   29 1
    18    8   41 1
    19    9   10 2
    20    9   11 am
    21   11   12 1
    22   11   42 1
    23   12   17 1
    24   12   13 1
    25   12   18 1
    26   13   14 1
    27   13   43 1
    28   13   44 1
    29   14   15 1
    30   14   45 1
    31   14   46 1
    32   15   16 1
    33   15   47 1
    34   15   48 1
    35   16   17 1
    36   16   49 1
    37   16   50 1
    38   17   51 1
    39   17   52 1
    40   18   19 2
    41   18   20 am
    42   20   21 1
    43   20   53 1
    44   21   22 1
    45   21   26 1
    46   21   54 1
    47   22   23 1
    48   22   55 1
    49   22   56 1
    50   23   24 2
    51   23   25 am
    52   25   57 1
    53   25   58 1
    54   26   27 2
    55   26   28 am
    56   28   59 1
    57   28   60 1
    58   29   61 1
    59   29   62 1
    60   30   63 1
    61   30   64 1
    62   31   32 1
    63   32   33 2
    64   32   34 1
    65   32   35 1
@<TRIPOS>MOLECULE
CHEMBL49860__5
   65    66     0     0     0
SMALL
USER_CHARGES

@<TRIPOS>ATOM
      1 C1         -0.3108    1.6556   -0.4954 C.ar      1 <0>        -0.1758
      2 C2          0.8350    2.4263   -0.5777 C.ar      1 <0>        -0.1019
      3 C3          2.0802    1.8217   -0.5463 C.ar      1 <0>         0.1331
      4 C4          2.1756    0.4361   -0.4312 C.ar      1 <0>         0.2038
      5 C5          1.0226   -0.3301   -0.3488 C.ar      1 <0>        -0.1886
      6 C6         -0.2171    0.2814   -0.3813 C.ar      1 <0>        -0.1393
      7 C7         -1.4691   -0.5525   -0.2916 C.3       1 <0>        -0.0773
      8 C8         -1.9153   -0.9557   -1.6984 C.3       1 <0>         0.0159
      9 C9         -3.0942   -1.8895   -1.6033 C.2       1 <0>         0.5022
     10 O1         -4.2180   -1.4669   -1.7748 O.2       1 <0>        -0.4821
     11 N1         -2.8998   -3.1944   -1.3275 N.am      1 <0>        -0.7077
     12 C10        -4.0496   -4.0826   -1.1396 C.3       1 <0>         0.1745
     13 C11        -4.8623   -4.1456   -2.4344 C.3       1 <0>        -0.1169
     14 C12        -3.9815   -4.6836   -3.5638 C.3       1 <0>        -0.1143
     15 C13        -3.4887   -6.0862   -3.2022 C.3       1 <0>        -0.1249
     16 C14        -2.6759   -6.0232   -1.9075 C.3       1 <0>        -0.1175
     17 C15        -3.5567   -5.4852   -0.7781 C.3       1 <0>        -0.1217
     18 C16        -4.9172   -3.5527   -0.0272 C.2       1 <0>         0.5370
     19 O2         -6.1218   -3.6809   -0.0841 O.2       1 <0>        -0.5214
     20 N2         -4.3544   -2.9363    1.0310 N.am      1 <0>        -0.6934
     21 C17        -5.2013   -2.3387    2.0663 C.3       1 <0>         0.1495
     22 C18        -4.4315   -1.2209    2.7725 C.3       1 <0>        -0.1578
     23 C19        -4.1517   -0.1085    1.7951 C.2       1 <0>         0.5124
     24 O3         -4.5307   -0.2006    0.6468 O.2       1 <0>        -0.5264
     25 N3         -3.4803    0.9888    2.1972 N.am      1 <0>        -0.8470
     26 C20        -5.5880   -3.3942    3.0701 C.2       1 <0>         0.5065
     27 O4         -5.1948   -4.5334    2.9340 O.2       1 <0>        -0.5267
     28 N4         -6.3707   -3.0721    4.1189 N.am      1 <0>        -0.8523
     29 N5         -2.3010    0.2446   -2.4526 N.4       1 <0>        -0.6188
     30 N6          3.4317   -0.1805   -0.3994 N.pl3     1 <0>        -0.8565
     31 O5          3.2076    2.5781   -0.6280 O.3       1 <0>        -0.6541
     32 P1          3.5598    3.3767    0.7250 P.3       1 <0>         2.0707
     33 O6          2.3294    4.2468    1.1532 O.2       1 <0>        -1.1562
     34 O7          3.8971    2.3535    1.8625 O.3       1 <0>        -1.1558
     35 O8          4.7958    4.3066    0.4757 O.3       1 <0>        -1.1472
     36 H1         -1.2811    2.1293   -0.5160 H         1 <0>         0.1069
     37 H2          0.7582    3.4998   -0.6668 H         1 <0>         0.1412
     38 H3          1.0930   -1.4041   -0.2595 H         1 <0>         0.1148
     39 H4         -1.2679   -1.4481    0.2963 H         1 <0>         0.1066
     40 H5         -2.2581    0.0270    0.1877 H         1 <0>         0.1006
     41 H6         -1.0943   -1.4580   -2.2100 H         1 <0>         0.1606
     42 H7         -1.9986   -3.5454   -1.2535 H         1 <0>         0.4107
     43 H8         -5.7178   -4.8064   -2.2946 H         1 <0>         0.0850
     44 H9         -5.2134   -3.1463   -2.6919 H         1 <0>         0.0879
     45 H10        -4.5605   -4.7284   -4.4862 H         1 <0>         0.0679
     46 H11        -3.1260   -4.0227   -3.7036 H         1 <0>         0.0584
     47 H12        -4.3441   -6.7470   -3.0624 H         1 <0>         0.0669
     48 H13        -2.8611   -6.4694   -4.0069 H         1 <0>         0.0667
     49 H14        -2.3248   -7.0224   -1.6499 H         1 <0>         0.0754
     50 H15        -1.8204   -5.3623   -2.0473 H         1 <0>         0.0634
     51 H16        -2.9777   -5.4403    0.1443 H         1 <0>         0.0800
     52 H17        -4.4122   -6.1461   -0.6383 H         1 <0>         0.0922
     53 H18        -3.3886   -2.8883    1.1072 H         1 <0>         0.3983
     54 H19        -6.1002   -1.9270    1.6074 H         1 <0>         0.1252
     55 H20        -5.0274   -0.8361    3.6001 H         1 <0>         0.1162
     56 H21        -3.4895   -1.6140    3.1550 H         1 <0>         0.1100
     57 H22        -3.1772    1.0625    3.1156 H         1 <0>         0.4086
     58 H23        -3.3002    1.7048    1.5681 H         1 <0>         0.4068
     59 H24        -6.6852   -2.1610    4.2277 H         1 <0>         0.4016
     60 H25        -6.6196   -3.7515    4.7650 H         1 <0>         0.4052
     61 H26        -1.5116    0.8698   -2.5163 H         1 <0>         0.4465
     62 H27        -2.5952   -0.0213   -3.3804 H         1 <0>         0.4311
     63 H28         4.2373    0.3566   -0.4575 H         1 <0>         0.4114
     64 H29         3.4966   -1.1450   -0.3193 H         1 <0>         0.3892
     65 H30        -3.0610    0.7095   -1.9790 H         1 <0>         0.4404
@<TRIPOS>BOND
     1    1    6 ar
     2    1    2 ar
     3    1   36 1
     4    2    3 ar
     5    2   37 1
     6    3    4 ar
     7    3   31 1
     8    4    5 ar
     9    4   30 1
    10    5    6 ar
    11    5   38 1
    12    6    7 1
    13    7    8 1
    14    7   39 1
    15    7   40 1
    16    8    9 1
    17    8   29 1
    18    8   41 1
    19    9   10 2
    20    9   11 am
    21   11   12 1
    22   11   42 1
    23   12   17 1
    24   12   13 1
    25   12   18 1
    26   13   14 1
    27   13   43 1
    28   13   44 1
    29   14   15 1
    30   14   45 1
    31   14   46 1
    32   15   16 1
    33   15   47 1
    34   15   48 1
    35   16   17 1
    36   16   49 1
    37   16   50 1
    38   17   51 1
    39   17   52 1
    40   18   19 2
    41   18   20 am
    42   20   21 1
    43   20   53 1
    44   21   22 1
    45   21   26 1
    46   21   54 1
    47   22   23 1
    48   22   55 1
    49   22   56 1
    50   23   24 2
    51   23   25 am
    52   25   57 1
    53   25   58 1
    54   26   27 2
    55   26   28 am
    56   28   59 1
    57   28   60 1
    58   29   61 1
    59   29   62 1
    60   29   65 1
    61   30   63 1
    62   30   64 1
    63   31   32 1
    64   32   33 2
    65   32   34 1
    66   32   35 1
@<TRIPOS>MOLECULE
CHEMBL49860__6
   64    65     0     0     0
SMALL
USER_CHARGES

@<TRIPOS>ATOM
      1 C1          0.2780    1.2138   -0.3385 C.ar      1 <0>        -0.1271
      2 C2          1.5052    1.8514   -0.3713 C.ar      1 <0>        -0.1070
      3 C3          2.6727    1.1111   -0.2935 C.ar      1 <0>         0.1091
      4 C4          2.6077   -0.2765   -0.1818 C.ar      1 <0>         0.1865
      5 C5          1.3738   -0.9088   -0.1491 C.ar      1 <0>        -0.1965
      6 C6          0.2127   -0.1623   -0.2277 C.ar      1 <0>        -0.0814
      7 C7         -1.1274   -0.8507   -0.1921 C.3       1 <0>        -0.0481
      8 C8         -1.5592   -1.2005   -1.6176 C.3       1 <0>         0.0889
      9 C9         -2.8381   -1.9965   -1.5741 C.2       1 <0>         0.4764
     10 O1         -3.8997   -1.4505   -1.7880 O.2       1 <0>        -0.5080
     11 N1         -2.8021   -3.3150   -1.2975 N.am      1 <0>        -0.7290
     12 C10        -4.0508   -4.0664   -1.1474 C.3       1 <0>         0.1711
     13 C11        -4.8904   -3.4423   -0.0310 C.3       1 <0>        -0.1137
     14 C12        -4.1070   -3.4876    1.2824 C.3       1 <0>        -0.1182
     15 C13        -3.7880   -4.9415    1.6362 C.3       1 <0>        -0.1199
     16 C14        -2.9484   -5.5656    0.5198 C.3       1 <0>        -0.1176
     17 C15        -3.7318   -5.5203   -0.7937 C.3       1 <0>        -0.1142
     18 C16        -4.8224   -4.0218   -2.4411 C.2       1 <0>         0.5457
     19 O2         -6.0339   -3.9689   -2.4231 O.2       1 <0>        -0.5357
     20 N2         -4.1661   -4.0407   -3.6182 N.am      1 <0>        -0.6938
     21 C17        -4.9169   -4.1065   -4.8744 C.3       1 <0>         0.1457
     22 C18        -4.0755   -3.5077   -6.0033 C.3       1 <0>        -0.1500
     23 C19        -3.8597   -2.0389   -5.7443 C.2       1 <0>         0.5021
     24 O3         -4.3323   -1.5219   -4.7542 O.2       1 <0>        -0.4964
     25 N3         -3.1415   -1.2998   -6.6128 N.am      1 <0>        -0.8563
     26 C20        -5.2363   -5.5441   -5.1942 C.2       1 <0>         0.5064
     27 O4         -4.8725   -6.4269   -4.4463 O.2       1 <0>        -0.5256
     28 N4         -5.9261   -5.8489   -6.3112 N.am      1 <0>        -0.8548
     29 N5         -1.7776    0.0358   -2.3803 N.3       1 <0>        -0.8000
     30 N6          3.7846   -1.0300   -0.1032 N.pl3     1 <0>        -0.8690
     31 O5          3.8800    1.7366   -0.3265 O.3       1 <0>        -0.6638
     32 P1          4.2649    2.4898    1.0434 P.3       1 <0>         2.0897
     33 O6          3.1235    3.4921    1.4268 O.2       1 <0>        -1.1660
     34 O7          4.4396    1.4346    2.1882 O.3       1 <0>        -1.1665
     35 O8          5.6061    3.2756    0.8483 O.3       1 <0>        -1.1628
     36 H1         -0.6316    1.7933   -0.3952 H         1 <0>         0.1064
     37 H2          1.5526    2.9269   -0.4579 H         1 <0>         0.1293
     38 H3          1.3200   -1.9840   -0.0626 H         1 <0>         0.1034
     39 H4         -1.0513   -1.7635    0.3988 H         1 <0>         0.0684
     40 H5         -1.8651   -0.1867    0.2584 H         1 <0>         0.0695
     41 H6         -0.7797   -1.7913   -2.0987 H         1 <0>         0.0969
     42 H7         -1.9494   -3.7666   -1.1977 H         1 <0>         0.4022
     43 H8         -5.1177   -2.4065   -0.2830 H         1 <0>         0.0872
     44 H9         -5.8195   -4.0013    0.0806 H         1 <0>         0.0740
     45 H10        -3.1780   -2.9286    1.1708 H         1 <0>         0.0686
     46 H11        -4.7053   -3.0430    2.0778 H         1 <0>         0.0646
     47 H12        -3.2299   -4.9738    2.5719 H         1 <0>         0.0651
     48 H13        -4.7171   -5.5006    1.7478 H         1 <0>         0.0599
     49 H14        -2.0193   -5.0066    0.4081 H         1 <0>         0.0684
     50 H15        -2.7211   -6.6014    0.7718 H         1 <0>         0.0680
     51 H16        -4.6608   -6.0794   -0.6820 H         1 <0>         0.0812
     52 H17        -3.1335   -5.9649   -1.5890 H         1 <0>         0.0739
     53 H18        -3.1967   -4.0108   -3.6335 H         1 <0>         0.4001
     54 H19        -5.8440   -3.5421   -4.7736 H         1 <0>         0.1237
     55 H20        -3.1115   -4.0146   -6.0461 H         1 <0>         0.1046
     56 H21        -4.5962   -3.6366   -6.9522 H         1 <0>         0.1094
     57 H22        -2.7635   -1.7133   -7.4047 H         1 <0>         0.3982
     58 H23        -3.0026   -0.3544   -6.4461 H         1 <0>         0.4066
     59 H24        -6.2170   -5.1428   -6.9093 H         1 <0>         0.4002
     60 H25        -6.1316   -6.7742   -6.5170 H         1 <0>         0.4020
     61 H26        -2.0010   -0.1679   -3.3430 H         1 <0>         0.3357
     62 H27        -2.4963    0.6014   -1.9542 H         1 <0>         0.3481
     63 H28         4.6469   -0.5864   -0.1265 H         1 <0>         0.4032
     64 H29         3.7379   -1.9957   -0.0255 H         1 <0>         0.3814
@<TRIPOS>BOND
     1    1    6 ar
     2    1    2 ar
     3    1   36 1
     4    2    3 ar
     5    2   37 1
     6    3    4 ar
     7    3   31 1
     8    4    5 ar
     9    4   30 1
    10    5    6 ar
    11    5   38 1
    12    6    7 1
    13    7    8 1
    14    7   39 1
    15    7   40 1
    16    8    9 1
    17    8   29 1
    18    8   41 1
    19    9   10 2
    20    9   11 am
    21   11   12 1
    22   11   42 1
    23   12   17 1
    24   12   13 1
    25   12   18 1
    26   13   14 1
    27   13   43 1
    28   13   44 1
    29   14   15 1
    30   14   45 1
    31   14   46 1
    32   15   16 1
    33   15   47 1
    34   15   48 1
    35   16   17 1
    36   16   49 1
    37   16   50 1
    38   17   51 1
    39   17   52 1
    40   18   19 2
    41   18   20 am
    42   20   21 1
    43   20   53 1
    44   21   22 1
    45   21   26 1
    46   21   54 1
    47   22   23 1
    48   22   55 1
    49   22   56 1
    50   23   24 2
    51   23   25 am
    52   25   57 1
    53   25   58 1
    54   26   27 2
    55   26   28 am
    56   28   59 1
    57   28   60 1
    58   29   61 1
    59   29   62 1
    60   30   63 1
    61   30   64 1
    62   31   32 1
    63   32   33 2
    64   32   34 1
    65   32   35 1
@<TRIPOS>MOLECULE
CHEMBL49860__7
   65    66     0     0     0
SMALL
USER_CHARGES

@<TRIPOS>ATOM
      1 C1          0.2771    1.2147   -0.3384 C.ar      1 <0>        -0.1751
      2 C2          1.5041    1.8525   -0.3712 C.ar      1 <0>        -0.1028
      3 C3          2.6718    1.1124   -0.2933 C.ar      1 <0>         0.1329
      4 C4          2.6071   -0.2752   -0.1816 C.ar      1 <0>         0.2023
      5 C5          1.3733   -0.9077   -0.1490 C.ar      1 <0>        -0.1878
      6 C6          0.2120   -0.1614   -0.2276 C.ar      1 <0>        -0.1418
      7 C7         -1.1280   -0.8501   -0.1920 C.3       1 <0>        -0.0736
      8 C8         -1.5596   -1.1999   -1.6176 C.3       1 <0>         0.0145
      9 C9         -2.8384   -1.9961   -1.5741 C.2       1 <0>         0.4993
     10 O1         -3.9001   -1.4503   -1.7880 O.2       1 <0>        -0.4870
     11 N1         -2.8022   -3.3147   -1.2975 N.am      1 <0>        -0.7055
     12 C10        -4.0507   -4.0662   -1.1474 C.3       1 <0>         0.1743
     13 C11        -4.8905   -3.4423   -0.0310 C.3       1 <0>        -0.1180
     14 C12        -4.1071   -3.4874    1.2824 C.3       1 <0>        -0.1179
     15 C13        -3.7879   -4.9413    1.6362 C.3       1 <0>        -0.1250
     16 C14        -2.9481   -5.5652    0.5198 C.3       1 <0>        -0.1183
     17 C15        -3.7315   -5.5201   -0.7937 C.3       1 <0>        -0.1182
     18 C16        -4.8224   -4.0218   -2.4411 C.2       1 <0>         0.5394
     19 O2         -6.0339   -3.9690   -2.4231 O.2       1 <0>        -0.5186
     20 N2         -4.1661   -4.0407   -3.6182 N.am      1 <0>        -0.6968
     21 C17        -4.9169   -4.1065   -4.8744 C.3       1 <0>         0.1453
     22 C18        -4.0755   -3.5077   -6.0033 C.3       1 <0>        -0.1536
     23 C19        -3.8597   -2.0389   -5.7443 C.2       1 <0>         0.5090
     24 O3         -4.3323   -1.5219   -4.7542 O.2       1 <0>        -0.5153
     25 N3         -3.1415   -1.2998   -6.6128 N.am      1 <0>        -0.8561
     26 C20        -5.2363   -5.5441   -5.1942 C.2       1 <0>         0.5047
     27 O4         -4.8725   -6.4269   -4.4463 O.2       1 <0>        -0.5244
     28 N4         -5.9261   -5.8489   -6.3112 N.am      1 <0>        -0.8522
     29 N5         -1.7783    0.0363   -2.3803 N.4       1 <0>        -0.6183
     30 N6          3.7841   -1.0285   -0.1031 N.pl3     1 <0>        -0.8569
     31 O5          3.8789    1.7381   -0.3263 O.3       1 <0>        -0.6540
     32 P1          4.2637    2.4913    1.0436 P.3       1 <0>         2.0692
     33 O6          3.1221    3.4934    1.4270 O.2       1 <0>        -1.1557
     34 O7          4.4386    1.4362    2.1884 O.3       1 <0>        -1.1552
     35 O8          5.6048    3.2774    0.8485 O.3       1 <0>        -1.1469
     36 H1         -0.6326    1.7940   -0.3951 H         1 <0>         0.1095
     37 H2          1.5514    2.9280   -0.4578 H         1 <0>         0.1416
     38 H3          1.3196   -1.9829   -0.0625 H         1 <0>         0.1154
     39 H4         -1.0518   -1.7629    0.3989 H         1 <0>         0.1144
     40 H5         -1.8658   -0.1862    0.2585 H         1 <0>         0.0991
     41 H6         -0.7801   -1.7906   -2.0986 H         1 <0>         0.1603
     42 H7         -1.9494   -3.7661   -1.1977 H         1 <0>         0.4118
     43 H8         -5.1180   -2.4065   -0.2830 H         1 <0>         0.0877
     44 H9         -5.8195   -4.0015    0.0806 H         1 <0>         0.0854
     45 H10        -3.1782   -2.9283    1.1708 H         1 <0>         0.0627
     46 H11        -4.7054   -3.0429    2.0778 H         1 <0>         0.0710
     47 H12        -3.2298   -4.9735    2.5719 H         1 <0>         0.0697
     48 H13        -4.7169   -5.5005    1.7478 H         1 <0>         0.0658
     49 H14        -2.0191   -5.0061    0.4081 H         1 <0>         0.0650
     50 H15        -2.7207   -6.6010    0.7718 H         1 <0>         0.0750
     51 H16        -4.6605   -6.0793   -0.6820 H         1 <0>         0.0911
     52 H17        -3.1332   -5.9646   -1.5890 H         1 <0>         0.0791
     53 H18        -3.1967   -4.0108   -3.6335 H         1 <0>         0.3966
     54 H19        -5.8440   -3.5421   -4.7736 H         1 <0>         0.1271
     55 H20        -3.1115   -4.0146   -6.0461 H         1 <0>         0.1084
     56 H21        -4.5962   -3.6366   -6.9522 H         1 <0>         0.1159
     57 H22        -2.7635   -1.7133   -7.4047 H         1 <0>         0.4050
     58 H23        -3.0026   -0.3544   -6.4461 H         1 <0>         0.4037
     59 H24        -6.2170   -5.1428   -6.9093 H         1 <0>         0.4011
     60 H25        -6.1316   -6.7742   -6.5170 H         1 <0>         0.4061
     61 H26        -0.9221    0.5694   -2.4094 H         1 <0>         0.4471
     62 H27        -2.0629   -0.1944   -3.3204 H         1 <0>         0.4296
     63 H28         4.6463   -0.5848   -0.1263 H         1 <0>         0.4112
     64 H29         3.7375   -1.9943   -0.0253 H         1 <0>         0.3890
     65 H30        -2.4999    0.5831   -1.9350 H         1 <0>         0.4392
@<TRIPOS>BOND
     1    1    6 ar
     2    1    2 ar
     3    1   36 1
     4    2    3 ar
     5    2   37 1
     6    3    4 ar
     7    3   31 1
     8    4    5 ar
     9    4   30 1
    10    5    6 ar
    11    5   38 1
    12    6    7 1
    13    7    8 1
    14    7   39 1
    15    7   40 1
    16    8    9 1
    17    8   29 1
    18    8   41 1
    19    9   10 2
    20    9   11 am
    21   11   12 1
    22   11   42 1
    23   12   17 1
    24   12   13 1
    25   12   18 1
    26   13   14 1
    27   13   43 1
    28   13   44 1
    29   14   15 1
    30   14   45 1
    31   14   46 1
    32   15   16 1
    33   15   47 1
    34   15   48 1
    35   16   17 1
    36   16   49 1
    37   16   50 1
    38   17   51 1
    39   17   52 1
    40   18   19 2
    41   18   20 am
    42   20   21 1
    43   20   53 1
    44   21   22 1
    45   21   26 1
    46   21   54 1
    47   22   23 1
    48   22   55 1
    49   22   56 1
    50   23   24 2
    51   23   25 am
    52   25   57 1
    53   25   58 1
    54   26   27 2
    55   26   28 am
    56   28   59 1
    57   28   60 1
    58   29   61 1
    59   29   62 1
    60   29   65 1
    61   30   63 1
    62   30   64 1
    63   31   32 1
    64   32   33 2
    65   32   34 1
    66   32   35 1
@<TRIPOS>MOLECULE
CHEMBL597592
   62    66     0     0     0
SMALL
USER_CHARGES

@<TRIPOS>ATOM
      1 C1          1.7232    6.1788   -2.2610 C.3       1 <0>        -0.1379
      2 C2          0.9118    5.0069   -1.7049 C.3       1 <0>         0.0124
      3 C3          1.3093    4.7568   -0.2488 C.3       1 <0>        -0.1388
      4 C4         -0.5798    5.3400   -1.7763 C.3       1 <0>        -0.1378
      5 C5          1.1901    3.7710   -2.5210 C.2       1 <0>         0.1118
      6 C6          2.3515    2.9956   -2.4589 C.2       1 <0>        -0.2550
      7 C7          2.2185    1.9721   -3.3463 C.2       1 <0>         0.3205
      8 N1          1.0042    2.1072   -3.9459 N.pl3     1 <0>        -0.3439
      9 N2          0.3830    3.2394   -3.4034 N.2       1 <0>        -0.2725
     10 C8          0.4689    1.2617   -4.9272 C.ar      1 <0>         0.1595
     11 C9          1.3028    0.6726   -5.8681 C.ar      1 <0>        -0.1540
     12 C10         0.7724   -0.1605   -6.8336 C.ar      1 <0>        -0.0908
     13 C11        -0.5877   -0.4082   -6.8637 C.ar      1 <0>        -0.1238
     14 C12        -1.4209    0.1773   -5.9282 C.ar      1 <0>        -0.0923
     15 C13        -0.8956    1.0068   -4.9567 C.ar      1 <0>        -0.1103
     16 N3          3.1549    0.9691   -3.5957 N.am      1 <0>        -0.6570
     17 C14         4.3239    0.9569   -2.9250 C.2       1 <0>         0.7132
     18 O1          4.5621    1.8202   -2.1026 O.2       1 <0>        -0.5336
     19 N4          5.2289   -0.0124   -3.1660 N.am      1 <0>        -0.6763
     20 C15         6.4917    0.0446   -2.5659 C.ar      1 <0>         0.1724
     21 C16         7.6091   -0.4147   -3.2519 C.ar      1 <0>        -0.1373
     22 C17         8.8557   -0.3585   -2.6596 C.ar      1 <0>        -0.0844
     23 C18         8.9951    0.1544   -1.3839 C.ar      1 <0>        -0.1347
     24 C19         7.8823    0.6147   -0.6937 C.ar      1 <0>         0.1013
     25 C20         6.6302    0.5652   -1.2873 C.ar      1 <0>        -0.1241
     26 O2          8.0207    1.1184    0.5606 O.3       1 <0>        -0.2557
     27 C21         7.8671    0.2682    1.6103 C.ar      1 <0>         0.1423
     28 C22         7.6933   -1.0887    1.3868 C.ar      1 <0>        -0.1864
     29 C23         7.5368   -1.9557    2.4539 C.ar      1 <0>        -0.0678
     30 C24         7.5524   -1.4772    3.7495 C.ar      1 <0>        -0.1361
     31 C25         7.7261   -0.1209    3.9852 C.ar      1 <0>         0.1267
     32 C26         7.8895    0.7558    2.9126 C.ar      1 <0>         0.0650
     33 N5          8.0460    2.0313    3.4544 N.am      1 <0>        -0.6331
     34 H1          8.1759    2.8502    2.9510 H         1 <0>         0.4395
     35 C27         7.9859    1.9315    4.7958 C.2       1 <0>         0.6843
     36 O3          8.0863    2.8624    5.5732 O.2       1 <0>        -0.5523
     37 N6          7.7853    0.6469    5.1458 N.am      1 <0>        -0.6397
     38 H2          7.7057    0.3117    6.0525 H         1 <0>         0.4385
     39 H3          2.7858    5.9415   -2.2102 H         1 <0>         0.0613
     40 H4          1.4400    6.3569   -3.2984 H         1 <0>         0.0564
     41 H5          1.5219    7.0727   -1.6708 H         1 <0>         0.0661
     42 H6          1.1080    5.6507    0.3415 H         1 <0>         0.0652
     43 H7          0.7313    3.9220    0.1474 H         1 <0>         0.0568
     44 H8          2.3720    4.5195   -0.1979 H         1 <0>         0.0633
     45 H9         -0.8631    5.5182   -2.8137 H         1 <0>         0.0611
     46 H10        -1.1579    4.5052   -1.3801 H         1 <0>         0.0567
     47 H11        -0.7812    6.2339   -1.1860 H         1 <0>         0.0608
     48 H12         3.2033    3.1764   -1.8201 H         1 <0>         0.1801
     49 H13         2.3651    0.8660   -5.8454 H         1 <0>         0.1237
     50 H14         1.4205   -0.6187   -7.5660 H         1 <0>         0.1347
     51 H15        -1.0002   -1.0601   -7.6196 H         1 <0>         0.1319
     52 H16        -2.4828   -0.0175   -5.9546 H         1 <0>         0.1348
     53 H17        -1.5462    1.4601   -4.2234 H         1 <0>         0.1361
     54 H18         2.9649    0.2804   -4.2517 H         1 <0>         0.4098
     55 H19         5.0048   -0.7494   -3.7555 H         1 <0>         0.4125
     56 H20         7.5030   -0.8163   -4.2488 H         1 <0>         0.1336
     57 H21         9.7231   -0.7164   -3.1944 H         1 <0>         0.1390
     58 H22         9.9710    0.1967   -0.9232 H         1 <0>         0.1355
     59 H23         5.7637    0.9266   -0.7535 H         1 <0>         0.1538
     60 H24         7.6796   -1.4704    0.3766 H         1 <0>         0.1389
     61 H25         7.4015   -3.0117    2.2727 H         1 <0>         0.1394
     62 H26         7.4291   -2.1583    4.5785 H         1 <0>         0.1365
@<TRIPOS>BOND
     1    1    2 1
     2    1   39 1
     3    1   40 1
     4    1   41 1
     5    2    3 1
     6    2    4 1
     7    2    5 1
     8    3   42 1
     9    3   43 1
    10    3   44 1
    11    4   45 1
    12    4   46 1
    13    4   47 1
    14    5    9 2
    15    5    6 1
    16    6    7 2
    17    6   48 1
    18    7    8 1
    19    7   16 1
    20    8    9 1
    21    8   10 1
    22   10   15 ar
    23   10   11 ar
    24   11   12 ar
    25   11   49 1
    26   12   13 ar
    27   12   50 1
    28   13   14 ar
    29   13   51 1
    30   14   15 ar
    31   14   52 1
    32   15   53 1
    33   16   17 am
    34   16   54 1
    35   17   18 2
    36   17   19 am
    37   19   20 1
    38   19   55 1
    39   20   25 ar
    40   20   21 ar
    41   21   22 ar
    42   21   56 1
    43   22   23 ar
    44   22   57 1
    45   23   24 ar
    46   23   58 1
    47   24   25 ar
    48   24   26 1
    49   25   59 1
    50   26   27 1
    51   27   32 ar
    52   27   28 ar
    53   28   29 ar
    54   28   60 1
    55   29   30 ar
    56   29   61 1
    57   30   31 ar
    58   30   62 1
    59   31   37 1
    60   31   32 ar
    61   32   33 1
    62   33   34 1
    63   33   35 am
    64   35   36 2
    65   35   37 am
    66   37   38 1
@<TRIPOS>MOLECULE
CHEMBL406845
   37    39     0     0     0
SMALL
USER_CHARGES

@<TRIPOS>ATOM
      1 C1         -1.1455    1.2885   -0.6608 C.3       1 <0>        -0.1446
      2 C2         -0.6741   -0.1436   -0.4002 C.3       1 <0>         0.1889
      3 C3          0.0885   -0.1963    0.9251 C.3       1 <0>        -0.1620
      4 C4         -1.8863   -1.0744   -0.3285 C.3       1 <0>        -0.1626
      5 N1          0.2077   -0.5730   -1.4885 N.pl3     1 <0>        -0.3657
      6 C5          0.8042   -1.7951   -1.5829 C.ar      1 <0>         0.3794
      7 C6          1.5592   -1.7908   -2.7708 C.ar      1 <0>        -0.3246
      8 C7          1.3681   -0.4739   -3.3780 C.2       1 <0>         0.1589
      9 N2          0.5635    0.2052   -2.5951 N.2       1 <0>        -0.2267
     10 C8          1.9678    0.0032   -4.6470 C.ar      1 <0>        -0.0171
     11 C9          1.9680   -0.8188   -5.7730 C.ar      1 <0>        -0.0978
     12 C10         2.5276   -0.3699   -6.9517 C.ar      1 <0>        -0.1054
     13 C11         3.0885    0.8941   -7.0172 C.ar      1 <0>        -0.0242
     14 C12         3.0913    1.7142   -5.9017 C.ar      1 <0>        -0.1044
     15 C13         2.5284    1.2775   -4.7201 C.ar      1 <0>        -0.0724
     16 Cl1         3.7914    1.4526   -8.5031 Cl        1 <0>        -0.0595
     17 C14         2.2822   -2.9459   -3.1108 C.ar      1 <0>         0.5178
     18 N3          2.2203   -3.9926   -2.2933 N.ar      1 <0>        -0.6043
     19 C15         1.4984   -3.9529   -1.1876 C.ar      1 <0>         0.3844
     20 N4          0.8058   -2.8942   -0.8290 N.ar      1 <0>        -0.5698
     21 N5          3.0384   -2.9934   -4.2660 N.pl3     1 <0>        -0.8297
     22 H1         -0.2819    1.9516   -0.7119 H         1 <0>         0.0676
     23 H2         -1.6888    1.3260   -1.6050 H         1 <0>         0.0678
     24 H3         -1.8016    1.6080    0.1489 H         1 <0>         0.0763
     25 H4         -0.5676    0.1232    1.7348 H         1 <0>         0.0806
     26 H5          0.4243   -1.2165    1.1107 H         1 <0>         0.0770
     27 H6          0.9521    0.4669    0.8740 H         1 <0>         0.0599
     28 H7         -2.4296   -1.0369   -1.2727 H         1 <0>         0.0599
     29 H8         -1.5504   -2.0947   -0.1429 H         1 <0>         0.0774
     30 H9         -2.5423   -0.7549    0.4811 H         1 <0>         0.0804
     31 H10         1.5313   -1.8053   -5.7227 H         1 <0>         0.1409
     32 H11         2.5283   -1.0059   -7.8246 H         1 <0>         0.1431
     33 H12         3.5304    2.6993   -5.9580 H         1 <0>         0.1422
     34 H13         2.5267    1.9198   -3.8518 H         1 <0>         0.1395
     35 H14         1.4759   -4.8260   -0.5523 H         1 <0>         0.2047
     36 H15         3.2655   -2.1730   -4.7311 H         1 <0>         0.4126
     37 H16         3.3423   -3.8471   -4.6119 H         1 <0>         0.4114
@<TRIPOS>BOND
     1    1    2 1
     2    1   22 1
     3    1   23 1
     4    1   24 1
     5    2    3 1
     6    2    4 1
     7    2    5 1
     8    3   25 1
     9    3   26 1
    10    3   27 1
    11    4   28 1
    12    4   29 1
    13    4   30 1
    14    5    9 1
    15    5    6 1
    16    6   20 ar
    17    6    7 ar
    18    7    8 1
    19    7   17 ar
    20    8    9 2
    21    8   10 1
    22   10   15 ar
    23   10   11 ar
    24   11   12 ar
    25   11   31 1
    26   12   13 ar
    27   12   32 1
    28   13   14 ar
    29   13   16 1
    30   14   15 ar
    31   14   33 1
    32   15   34 1
    33   17   18 ar
    34   17   21 1
    35   18   19 ar
    36   19   20 ar
    37   19   35 1
    38   21   36 1
    39   21   37 1
@<TRIPOS>MOLECULE
CHEMBL595401
   70    74     0     0     0
SMALL
USER_CHARGES

@<TRIPOS>ATOM
      1 C1         -0.0178    1.4648    0.0101 C.3       1 <0>        -0.0544
      2 N1          0.0021   -0.0041    0.0020 N.4       1 <0>        -0.3886
      3 C2         -1.3761   -0.5125    0.0124 C.3       1 <0>        -0.0476
      4 C3          0.6897   -0.4778   -1.2066 C.3       1 <0>        -0.0017
      5 C4          2.1588   -0.0534   -1.1571 C.3       1 <0>         0.0252
      6 O1          2.8089   -0.7134   -0.0690 O.3       1 <0>        -0.3292
      7 C5          4.1288   -0.4441    0.1165 C.ar      1 <0>         0.0927
      8 C6          4.7823    0.4417   -0.7286 C.ar      1 <0>        -0.1717
      9 C7          6.1197    0.6919   -0.5231 C.ar      1 <0>        -0.1053
     10 C8          6.8168    0.0718    0.5182 C.ar      1 <0>         0.1732
     11 C9          6.1801   -0.8004    1.3704 C.ar      1 <0>        -0.0756
     12 C10         4.8169   -1.0462    1.1466 C.ar      1 <0>        -0.1233
     13 C11         6.7175   -1.5550    2.5673 C.3       1 <0>        -0.0922
     14 C12         8.0689   -1.0778    3.0546 C.3       1 <0>         0.1280
     15 N2          9.0951   -1.2472    2.0214 N.pl3     1 <0>        -0.3680
     16 C13         9.1174   -0.5714    0.8870 C.2       1 <0>         0.3700
     17 C14        10.1979   -0.9927    0.1304 C.2       1 <0>        -0.2972
     18 C15        10.8677   -2.0180    0.9468 C.2       1 <0>         0.1892
     19 N3         10.1798   -2.1324    2.0626 N.2       1 <0>        -0.2763
     20 C16        12.0865   -2.7782    0.5810 C.ar      1 <0>        -0.0927
     21 C17        12.3121   -3.1392   -0.7470 C.ar      1 <0>        -0.0407
     22 C18        13.4464   -3.8457   -1.0849 C.ar      1 <0>        -0.1934
     23 C19        14.3650   -4.1989   -0.1029 C.ar      1 <0>         0.2400
     24 C20        14.1420   -3.8405    1.2218 C.ar      1 <0>        -0.1983
     25 C21        13.0122   -3.1286    1.5634 C.ar      1 <0>        -0.0303
     26 N4         15.5125   -4.9146   -0.4473 N.pl3     1 <0>        -0.7319
     27 C22        16.4812   -5.2873    0.5866 C.3       1 <0>         0.1585
     28 C23        17.6199   -6.0478   -0.0427 C.ar      1 <0>        -0.0981
     29 C24        17.5529   -7.4248   -0.1571 C.ar      1 <0>        -0.0098
     30 C25        18.5987   -8.1225   -0.7349 C.ar      1 <0>        -0.1078
     31 C26        19.7105   -7.4439   -1.1974 C.ar      1 <0>        -0.0832
     32 C27        19.7781   -6.0681   -1.0835 C.ar      1 <0>        -0.1074
     33 C28        18.7302   -5.3687   -0.5114 C.ar      1 <0>        -0.0101
     34 Cl1        18.8119   -3.6400   -0.3754 Cl        1 <0>        -0.0437
     35 Cl2        16.1570   -8.2773    0.4249 Cl        1 <0>        -0.0457
     36 C29        10.5906   -0.5190   -1.2002 C.2       1 <0>         0.6123
     37 O2         11.3538    0.4226   -1.3102 O.2       1 <0>        -0.5310
     38 N5         10.1064   -1.1262   -2.3018 N.am      1 <0>        -0.8495
     39 N6          8.1737    0.3934    0.6121 N.pl3     1 <0>        -0.6860
     40 H1          1.0047    1.8421    0.0024 H         1 <0>         0.1215
     41 H2         -0.5450    1.8259   -0.8730 H         1 <0>         0.1246
     42 H3         -0.5280    1.8163    0.9069 H         1 <0>         0.1273
     43 H4         -1.9033   -0.1515   -0.8706 H         1 <0>         0.1231
     44 H5         -1.3613   -1.6024    0.0065 H         1 <0>         0.1248
     45 H6         -1.8863   -0.1610    0.9092 H         1 <0>         0.1259
     46 H7          0.6270   -1.5648   -1.2578 H         1 <0>         0.1425
     47 H8          0.2158   -0.0447   -2.0875 H         1 <0>         0.1493
     48 H9          2.6477   -0.3267   -2.0922 H         1 <0>         0.1084
     49 H10         2.2206    1.0258   -1.0166 H         1 <0>         0.0865
     50 H11         4.2503    0.9263   -1.5339 H         1 <0>         0.1336
     51 H12         6.6390    1.3775   -1.1764 H         1 <0>         0.1367
     52 H13         4.2934   -1.7304    1.7979 H         1 <0>         0.1339
     53 H14         6.0025   -1.4609    3.3847 H         1 <0>         0.1069
     54 H15         6.7981   -2.6095    2.3033 H         1 <0>         0.0904
     55 H16         8.0007   -0.0230    3.3208 H         1 <0>         0.0916
     56 H17         8.3530   -1.6503    3.9375 H         1 <0>         0.1143
     57 H18        11.5984   -2.8657   -1.5101 H         1 <0>         0.1213
     58 H19        13.6215   -4.1255   -2.1132 H         1 <0>         0.1250
     59 H20        14.8568   -4.1162    1.9830 H         1 <0>         0.1260
     60 H21        12.8416   -2.8465    2.5919 H         1 <0>         0.1267
     61 H22        15.6687   -5.1653   -1.3713 H         1 <0>         0.4023
     62 H23        16.8663   -4.3869    1.0652 H         1 <0>         0.0814
     63 H24        15.9933   -5.9150    1.3323 H         1 <0>         0.0813
     64 H25        18.5464   -9.1975   -0.8242 H         1 <0>         0.1440
     65 H26        20.5269   -7.9890   -1.6477 H         1 <0>         0.1465
     66 H27        20.6472   -5.5385   -1.4447 H         1 <0>         0.1443
     67 H28         9.4981   -1.8767   -2.2141 H         1 <0>         0.4005
     68 H29        10.3662   -0.8128   -3.1822 H         1 <0>         0.4036
     69 H30         8.4559    1.3122    0.4810 H         1 <0>         0.4233
     70 H31         0.4901   -0.3383    0.8195 H         1 <0>         0.4338
@<TRIPOS>BOND
     1    1    2 1
     2    1   40 1
     3    1   41 1
     4    1   42 1
     5    2    3 1
     6    2    4 1
     7    2   70 1
     8    3   43 1
     9    3   44 1
    10    3   45 1
    11    4    5 1
    12    4   46 1
    13    4   47 1
    14    5    6 1
    15    5   48 1
    16    5   49 1
    17    6    7 1
    18    7   12 ar
    19    7    8 ar
    20    8    9 ar
    21    8   50 1
    22    9   10 ar
    23    9   51 1
    24   10   39 1
    25   10   11 ar
    26   11   12 ar
    27   11   13 1
    28   12   52 1
    29   13   14 1
    30   13   53 1
    31   13   54 1
    32   14   15 1
    33   14   55 1
    34   14   56 1
    35   15   19 1
    36   15   16 1
    37   16   17 2
    38   16   39 1
    39   17   18 1
    40   17   36 1
    41   18   19 2
    42   18   20 1
    43   20   25 ar
    44   20   21 ar
    45   21   22 ar
    46   21   57 1
    47   22   23 ar
    48   22   58 1
    49   23   24 ar
    50   23   26 1
    51   24   25 ar
    52   24   59 1
    53   25   60 1
    54   26   27 1
    55   26   61 1
    56   27   28 1
    57   27   62 1
    58   27   63 1
    59   28   33 ar
    60   28   29 ar
    61   29   30 ar
    62   29   35 1
    63   30   31 ar
    64   30   64 1
    65   31   32 ar
    66   31   65 1
    67   32   33 ar
    68   32   66 1
    69   33   34 1
    70   36   37 2
    71   36   38 am
    72   38   67 1
    73   38   68 1
    74   39   69 1
@<TRIPOS>MOLECULE
CHEMBL595624
   67    71     0     0     0
SMALL
USER_CHARGES

@<TRIPOS>ATOM
      1 C1          0.2749    2.1234    0.1773 C.3       1 <0>        -0.0545
      2 N1          0.2312    0.6553    0.1481 N.4       1 <0>        -0.3886
      3 C2         -1.1676    0.2068    0.1580 C.3       1 <0>        -0.0477
      4 C3          0.8924    0.1698   -1.0705 C.3       1 <0>        -0.0017
      5 C4          2.3787    0.5296   -1.0221 C.3       1 <0>         0.0251
      6 O1          3.0043   -0.1736    0.0532 O.3       1 <0>        -0.3290
      7 C5          4.3354    0.0356    0.2360 C.ar      1 <0>         0.0935
      8 C6          5.0230    0.9045   -0.5994 C.ar      1 <0>        -0.1716
      9 C7          6.3709    1.0936   -0.3970 C.ar      1 <0>        -0.1048
     10 C8          7.0449    0.4292    0.6323 C.ar      1 <0>         0.1722
     11 C9          6.3746   -0.4268    1.4750 C.ar      1 <0>        -0.0757
     12 C10         5.0012   -0.6105    1.2541 C.ar      1 <0>        -0.1234
     13 C11         6.8839   -1.2209    2.6586 C.3       1 <0>        -0.0923
     14 C12         8.2565   -0.8093    3.1463 C.3       1 <0>         0.1274
     15 N2          9.2703   -1.0079    2.1060 N.pl3     1 <0>        -0.3665
     16 C13         9.3170   -0.3176    0.9812 C.2       1 <0>         0.3715
     17 C14        10.3753   -0.7741    0.2137 C.2       1 <0>        -0.2953
     18 C15        11.0037   -1.8388    1.0124 C.2       1 <0>         0.1824
     19 N3         10.3159   -1.9395    2.1297 N.2       1 <0>        -0.2725
     20 C16        12.1876   -2.6449    0.6306 C.ar      1 <0>        -0.0691
     21 C17        12.3928   -2.9957   -0.7035 C.ar      1 <0>        -0.0537
     22 C18        13.4946   -3.7449   -1.0563 C.ar      1 <0>        -0.1695
     23 C19        14.4009   -4.1512   -0.0832 C.ar      1 <0>         0.2060
     24 C20        14.1981   -3.8030    1.2475 C.ar      1 <0>        -0.1723
     25 C21        13.1010   -3.0487    1.6041 C.ar      1 <0>        -0.0431
     26 N4         15.5158   -4.9103   -0.4428 N.pl3     1 <0>        -0.6839
     27 C22        16.0252   -4.8317   -1.7413 C.ar      1 <0>         0.1716
     28 C23        15.9460   -3.6388   -2.4492 C.ar      1 <0>        -0.1598
     29 C24        16.4509   -3.5645   -3.7324 C.ar      1 <0>        -0.0888
     30 C25        17.0344   -4.6757   -4.3130 C.ar      1 <0>        -0.1480
     31 C26        17.1144   -5.8648   -3.6115 C.ar      1 <0>        -0.0879
     32 C27        16.6171   -5.9445   -2.3256 C.ar      1 <0>        -0.1610
     33 C28        10.7825   -0.2989   -1.1121 C.2       1 <0>         0.6114
     34 O2         11.5850    0.6105   -1.2125 O.2       1 <0>        -0.5301
     35 N5         10.2681   -0.8692   -2.2196 N.am      1 <0>        -0.8490
     36 N6          8.4148    0.6908    0.7244 N.pl3     1 <0>        -0.6858
     37 H1          1.3129    2.4561    0.1700 H         1 <0>         0.1215
     38 H2         -0.2399    2.5197   -0.6979 H         1 <0>         0.1247
     39 H3         -0.2157    2.4836    1.0815 H         1 <0>         0.1274
     40 H4         -1.6825    0.6031   -0.7172 H         1 <0>         0.1232
     41 H5         -1.2001   -0.8825    0.1364 H         1 <0>         0.1248
     42 H6         -1.6583    0.5670    1.0623 H         1 <0>         0.1260
     43 H7          0.7826   -0.9126   -1.1369 H         1 <0>         0.1426
     44 H8          0.4341    0.6358   -1.9428 H         1 <0>         0.1495
     45 H9          2.8513    0.2490   -1.9634 H         1 <0>         0.1085
     46 H10         2.4879    1.6029   -0.8665 H         1 <0>         0.0867
     47 H11         4.5091    1.4232   -1.3952 H         1 <0>         0.1339
     48 H12         6.9167    1.7652   -1.0432 H         1 <0>         0.1369
     49 H13         4.4513   -1.2808    1.8981 H         1 <0>         0.1341
     50 H14         6.1769   -1.1078    3.4805 H         1 <0>         0.1075
     51 H15         6.9178   -2.2740    2.3794 H         1 <0>         0.0905
     52 H16         8.2349    0.2435    3.4277 H         1 <0>         0.0926
     53 H17         8.5192   -1.4061    4.0197 H         1 <0>         0.1149
     54 H18        11.6888   -2.6809   -1.4595 H         1 <0>         0.1248
     55 H19        13.6540   -4.0168   -2.0893 H         1 <0>         0.1326
     56 H20        14.9031   -4.1200    2.0018 H         1 <0>         0.1308
     57 H21        12.9463   -2.7744    2.6371 H         1 <0>         0.1312
     58 H22        15.9370   -5.4924    0.2089 H         1 <0>         0.4120
     59 H23        15.4899   -2.7708   -1.9965 H         1 <0>         0.1265
     60 H24        16.3898   -2.6375   -4.2832 H         1 <0>         0.1253
     61 H25        17.4281   -4.6149   -5.3169 H         1 <0>         0.1234
     62 H26        17.5701   -6.7309   -4.0682 H         1 <0>         0.1259
     63 H27        16.6839   -6.8721   -1.7767 H         1 <0>         0.1241
     64 H28         9.6285   -1.5940   -2.1395 H         1 <0>         0.4008
     65 H29        10.5375   -0.5548   -3.0968 H         1 <0>         0.4043
     66 H30         8.7356    1.5984    0.6053 H         1 <0>         0.4237
     67 H31         0.7078    0.2885    0.9583 H         1 <0>         0.4337
@<TRIPOS>BOND
     1    1    2 1
     2    1   37 1
     3    1   38 1
     4    1   39 1
     5    2    3 1
     6    2    4 1
     7    2   67 1
     8    3   40 1
     9    3   41 1
    10    3   42 1
    11    4    5 1
    12    4   43 1
    13    4   44 1
    14    5    6 1
    15    5   45 1
    16    5   46 1
    17    6    7 1
    18    7   12 ar
    19    7    8 ar
    20    8    9 ar
    21    8   47 1
    22    9   10 ar
    23    9   48 1
    24   10   36 1
    25   10   11 ar
    26   11   12 ar
    27   11   13 1
    28   12   49 1
    29   13   14 1
    30   13   50 1
    31   13   51 1
    32   14   15 1
    33   14   52 1
    34   14   53 1
    35   15   19 1
    36   15   16 1
    37   16   17 2
    38   16   36 1
    39   17   18 1
    40   17   33 1
    41   18   19 2
    42   18   20 1
    43   20   25 ar
    44   20   21 ar
    45   21   22 ar
    46   21   54 1
    47   22   23 ar
    48   22   55 1
    49   23   24 ar
    50   23   26 1
    51   24   25 ar
    52   24   56 1
    53   25   57 1
    54   26   27 1
    55   26   58 1
    56   27   32 ar
    57   27   28 ar
    58   28   29 ar
    59   28   59 1
    60   29   30 ar
    61   29   60 1
    62   30   31 ar
    63   30   61 1
    64   31   32 ar
    65   31   62 1
    66   32   63 1
    67   33   34 2
    68   33   35 am
    69   35   64 1
    70   35   65 1
    71   36   66 1
@<TRIPOS>MOLECULE
CHEMBL595625
   73    77     0     0     0
SMALL
USER_CHARGES

@<TRIPOS>ATOM
      1 C1         -0.2703    0.9046   -0.3852 C.3       1 <0>        -0.0545
      2 N1         -0.4363   -0.5545   -0.4237 N.4       1 <0>        -0.3886
      3 C2          0.0926   -1.0742   -1.6918 C.3       1 <0>        -0.0476
      4 C3          0.2953   -1.1602    0.6970 C.3       1 <0>        -0.0017
      5 C4         -0.3360   -0.7157    2.0179 C.3       1 <0>         0.0251
      6 O1         -1.6645   -1.2342    2.1092 O.3       1 <0>        -0.3290
      7 C5         -2.3704   -0.9294    3.2308 C.ar      1 <0>         0.0937
      8 C6         -1.7972   -0.1424    4.2197 C.ar      1 <0>        -0.1716
      9 C7         -2.5308    0.1465    5.3475 C.ar      1 <0>        -0.1044
     10 C8         -3.8335   -0.3371    5.5027 C.ar      1 <0>         0.1719
     11 C9         -4.4189   -1.1094    4.5264 C.ar      1 <0>        -0.0758
     12 C10        -3.6570   -1.3968    3.3837 C.ar      1 <0>        -0.1235
     13 C11        -5.8069   -1.7100    4.4653 C.3       1 <0>        -0.0923
     14 C12        -6.7732   -1.1620    5.4935 C.3       1 <0>         0.1271
     15 N2         -6.3112   -1.4406    6.8567 N.pl3     1 <0>        -0.3655
     16 C13        -5.2298   -0.9042    7.3924 C.2       1 <0>         0.3720
     17 C14        -5.0670   -1.3994    8.6752 C.2       1 <0>        -0.2917
     18 C15        -6.2021   -2.3123    8.8863 C.2       1 <0>         0.1760
     19 N3         -6.9162   -2.3016    7.7811 N.2       1 <0>        -0.2682
     20 C16        -6.4871   -3.0956   10.1121 C.ar      1 <0>        -0.0413
     21 C17        -5.4370   -3.6088   10.8728 C.ar      1 <0>        -0.0697
     22 C18        -5.7047   -4.3365   12.0126 C.ar      1 <0>        -0.1189
     23 C19        -7.0196   -4.5592   12.4036 C.ar      1 <0>         0.1774
     24 C20        -8.0679   -4.0492   11.6469 C.ar      1 <0>        -0.1403
     25 C21        -7.8054   -3.3156   10.5097 C.ar      1 <0>        -0.0599
     26 N4         -7.2884   -5.2982   13.5600 N.am      1 <0>        -0.6505
     27 C22        -6.4500   -5.2305   14.6131 C.2       1 <0>         0.6494
     28 O2         -5.5143   -4.4554   14.5959 O.2       1 <0>        -0.5475
     29 O3         -6.6491   -6.0217   15.6842 O.3       1 <0>        -0.3535
     30 C23        -5.7217   -5.8971   16.7643 C.3       1 <0>         0.1284
     31 C24        -6.1014   -6.8535   17.8653 C.ar      1 <0>        -0.1041
     32 C25        -6.9699   -6.4500   18.8622 C.ar      1 <0>        -0.0927
     33 C26        -7.3182   -7.3273   19.8722 C.ar      1 <0>        -0.1225
     34 C27        -6.7984   -8.6081   19.8849 C.ar      1 <0>        -0.1051
     35 C28        -5.9306   -9.0118   18.8875 C.ar      1 <0>        -0.1231
     36 C29        -5.5857   -8.1359   17.8752 C.ar      1 <0>        -0.0932
     37 C30        -3.9927   -1.0826    9.6211 C.2       1 <0>         0.6097
     38 O4         -4.1180   -0.1516   10.3949 O.2       1 <0>        -0.5281
     39 N5         -2.8662   -1.8224    9.6338 N.am      1 <0>        -0.8486
     40 N6         -4.4677    0.0097    6.6990 N.pl3     1 <0>        -0.6856
     41 H1          0.7882    1.1521   -0.4661 H         1 <0>         0.1247
     42 H2         -0.8131    1.3541   -1.2168 H         1 <0>         0.1274
     43 H3         -0.6627    1.2903    0.5557 H         1 <0>         0.1215
     44 H4          1.1511   -0.8267   -1.7726 H         1 <0>         0.1232
     45 H5         -0.0306   -2.1569   -1.7203 H         1 <0>         0.1248
     46 H6         -0.4502   -0.6248   -2.5233 H         1 <0>         0.1259
     47 H7          0.2462   -2.2463    0.6182 H         1 <0>         0.1426
     48 H8          1.3368   -0.8404    0.6663 H         1 <0>         0.1494
     49 H9          0.2590   -1.0923    2.8499 H         1 <0>         0.1086
     50 H10        -0.3675    0.3731    2.0573 H         1 <0>         0.0867
     51 H11        -0.7922    0.2365    4.1063 H         1 <0>         0.1340
     52 H12        -2.0936    0.7557    6.1247 H         1 <0>         0.1371
     53 H13        -4.0903   -2.0053    2.6037 H         1 <0>         0.1342
     54 H14        -6.2187   -1.5280    3.4726 H         1 <0>         0.1078
     55 H15        -5.7238   -2.7873    4.6087 H         1 <0>         0.0907
     56 H16        -6.8634   -0.0840    5.3602 H         1 <0>         0.0932
     57 H17        -7.7503   -1.6222    5.3464 H         1 <0>         0.1154
     58 H18        -4.4151   -3.4366   10.5690 H         1 <0>         0.1282
     59 H19        -4.8918   -4.7342   12.6021 H         1 <0>         0.1422
     60 H20        -9.0888   -4.2240   11.9526 H         1 <0>         0.1367
     61 H21        -8.6203   -2.9157    9.9244 H         1 <0>         0.1362
     62 H22        -8.0783   -5.8595   13.6043 H         1 <0>         0.4208
     63 H23        -4.7178   -6.1310   16.4100 H         1 <0>         0.0808
     64 H24        -5.7436   -4.8764   17.1460 H         1 <0>         0.0815
     65 H25        -7.3761   -5.4494   18.8522 H         1 <0>         0.1253
     66 H26        -7.9962   -7.0119   20.6514 H         1 <0>         0.1275
     67 H27        -7.0699   -9.2932   20.6744 H         1 <0>         0.1264
     68 H28        -5.5242  -10.0124   18.8977 H         1 <0>         0.1271
     69 H29        -4.9106   -8.4525   17.0939 H         1 <0>         0.1247
     70 H30        -2.7663   -2.5645    9.0171 H         1 <0>         0.4006
     71 H31        -2.1553   -1.6129   10.2597 H         1 <0>         0.4051
     72 H32        -4.3694    0.9098    7.0469 H         1 <0>         0.4241
     73 H33        -1.4161   -0.7836   -0.3488 H         1 <0>         0.4338
@<TRIPOS>BOND
     1    1    2 1
     2    1   41 1
     3    1   42 1
     4    1   43 1
     5    2    3 1
     6    2    4 1
     7    2   73 1
     8    3   44 1
     9    3   45 1
    10    3   46 1
    11    4    5 1
    12    4   47 1
    13    4   48 1
    14    5    6 1
    15    5   49 1
    16    5   50 1
    17    6    7 1
    18    7   12 ar
    19    7    8 ar
    20    8    9 ar
    21    8   51 1
    22    9   10 ar
    23    9   52 1
    24   10   40 1
    25   10   11 ar
    26   11   12 ar
    27   11   13 1
    28   12   53 1
    29   13   14 1
    30   13   54 1
    31   13   55 1
    32   14   15 1
    33   14   56 1
    34   14   57 1
    35   15   19 1
    36   15   16 1
    37   16   17 2
    38   16   40 1
    39   17   18 1
    40   17   37 1
    41   18   19 2
    42   18   20 1
    43   20   25 ar
    44   20   21 ar
    45   21   22 ar
    46   21   58 1
    47   22   23 ar
    48   22   59 1
    49   23   24 ar
    50   23   26 1
    51   24   25 ar
    52   24   60 1
    53   25   61 1
    54   26   27 am
    55   26   62 1
    56   27   28 2
    57   27   29 1
    58   29   30 1
    59   30   31 1
    60   30   63 1
    61   30   64 1
    62   31   36 ar
    63   31   32 ar
    64   32   33 ar
    65   32   65 1
    66   33   34 ar
    67   33   66 1
    68   34   35 ar
    69   34   67 1
    70   35   36 ar
    71   35   68 1
    72   36   69 1
    73   37   38 2
    74   37   39 am
    75   39   70 1
    76   39   71 1
    77   40   72 1
@<TRIPOS>MOLECULE
CHEMBL558752
   53    57     0     0     0
SMALL
USER_CHARGES

@<TRIPOS>ATOM
      1 C1          0.0890    1.3306    0.4873 C.3       1 <0>         0.0749
      2 N1          0.4081   -0.0534    0.1284 N.pl3     1 <0>        -0.5085
      3 C2          0.3528   -0.6077   -1.1416 C.ar      1 <0>         0.0507
      4 C3          0.0137   -0.1123   -2.3916 C.ar      1 <0>        -0.0838
      5 C4          0.0591   -0.9388   -3.4947 C.ar      1 <0>        -0.1077
      6 C5          0.4436   -2.2696   -3.3617 C.ar      1 <0>         0.0751
      7 C6          0.7843   -2.7778   -2.1231 C.ar      1 <0>        -0.0835
      8 C7          0.7420   -1.9496   -0.9988 C.ar      1 <0>         0.0911
      9 N2          1.0108   -2.1503    0.3180 N.2       1 <0>        -0.5208
     10 C8          0.8212   -1.0367    0.9810 C.2       1 <0>         0.5369
     11 N3          1.0073   -0.8814    2.3399 N.pl3     1 <0>        -0.6412
     12 C9          1.5328   -1.9319    3.0980 C.ar      1 <0>         0.2053
     13 C10         2.3998   -2.8463    2.5135 C.ar      1 <0>        -0.1275
     14 C11         2.9176   -3.8826    3.2654 C.ar      1 <0>        -0.0424
     15 C12         2.5735   -4.0107    4.5987 C.ar      1 <0>        -0.2053
     16 C13         1.7106   -3.1021    5.1837 C.ar      1 <0>        -0.0432
     17 C14         1.1938   -2.0602    4.4389 C.ar      1 <0>        -0.1549
     18 C15         3.1396   -5.1433    5.4158 C.3       1 <0>         0.5100
     19 F1          4.3412   -4.7372    6.0062 F         1 <0>        -0.1771
     20 F2          2.2267   -5.5000    6.4140 F         1 <0>        -0.1778
     21 F3          3.3767   -6.2442    4.5857 F         1 <0>        -0.1766
     22 O1          0.4838   -3.0743   -4.4569 O.3       1 <0>        -0.2390
     23 C16        -0.5198   -3.9726   -4.6248 C.ar      1 <0>         0.1693
     24 C17        -1.5519   -4.0724   -3.6928 C.ar      1 <0>        -0.2330
     25 C18        -2.5577   -4.9965   -3.8940 C.ar      1 <0>         0.1462
     26 N4         -2.5549   -5.7828   -4.9518 N.ar      1 <0>        -0.5008
     27 C19        -1.5918   -5.7224   -5.8653 C.ar      1 <0>         0.2185
     28 C20        -0.5464   -4.8114   -5.7333 C.ar      1 <0>        -0.1453
     29 C21        -1.6332   -6.6264   -7.0353 C.2       1 <0>         0.2951
     30 N5         -2.5993   -7.5546   -7.2938 N.pl3     1 <0>        -0.5196
     31 H1         -3.3797   -7.7419   -6.7491 H         1 <0>         0.4364
     32 C22        -2.2593   -8.1700   -8.4662 C.2       1 <0>        -0.1211
     33 C23        -1.1072   -7.6076   -8.8883 C.2       1 <0>         0.0664
     34 N6         -0.7487   -6.6689   -8.0066 N.2       1 <0>        -0.4582
     35 C24        -3.0256   -9.2688   -9.1565 C.3       1 <0>         0.5516
     36 F4         -3.9502   -8.7065  -10.0431 F         1 <0>        -0.1675
     37 F5         -2.1361  -10.0835   -9.8651 F         1 <0>        -0.1592
     38 F6         -3.7018  -10.0363   -8.2021 F         1 <0>        -0.1759
     39 H2          0.9883    1.9420    0.4122 H         1 <0>         0.0804
     40 H3         -0.6705    1.7164   -0.1926 H         1 <0>         0.0932
     41 H4         -0.2881    1.3632    1.5095 H         1 <0>         0.0841
     42 H5         -0.2858    0.9195   -2.5011 H         1 <0>         0.1337
     43 H6         -0.2058   -0.5511   -4.4673 H         1 <0>         0.1432
     44 H7          1.0819   -3.8113   -2.0243 H         1 <0>         0.1405
     45 H8          0.7733   -0.0434    2.7688 H         1 <0>         0.4223
     46 H9          2.6684   -2.7473    1.4722 H         1 <0>         0.1551
     47 H10         3.5917   -4.5939    2.8116 H         1 <0>         0.1402
     48 H11         1.4439   -3.2049    6.2251 H         1 <0>         0.1410
     49 H12         0.5234   -1.3483    4.8975 H         1 <0>         0.1374
     50 H13        -1.5643   -3.4335   -2.8221 H         1 <0>         0.1469
     51 H14        -3.3584   -5.0766   -3.1737 H         1 <0>         0.1687
     52 H15         0.2337   -4.7602   -6.4784 H         1 <0>         0.1618
     53 H16        -0.5687   -7.8687   -9.7873 H         1 <0>         0.1936
@<TRIPOS>BOND
     1    1    2 1
     2    1   39 1
     3    1   40 1
     4    1   41 1
     5    2   10 1
     6    2    3 1
     7    3    8 ar
     8    3    4 ar
     9    4    5 ar
    10    4   42 1
    11    5    6 ar
    12    5   43 1
    13    6    7 ar
    14    6   22 1
    15    7    8 ar
    16    7   44 1
    17    8    9 1
    18    9   10 2
    19   10   11 1
    20   11   12 1
    21   11   45 1
    22   12   17 ar
    23   12   13 ar
    24   13   14 ar
    25   13   46 1
    26   14   15 ar
    27   14   47 1
    28   15   16 ar
    29   15   18 1
    30   16   17 ar
    31   16   48 1
    32   17   49 1
    33   18   19 1
    34   18   20 1
    35   18   21 1
    36   22   23 1
    37   23   28 ar
    38   23   24 ar
    39   24   25 ar
    40   24   50 1
    41   25   26 ar
    42   25   51 1
    43   26   27 ar
    44   27   28 ar
    45   27   29 1
    46   28   52 1
    47   29   34 2
    48   29   30 1
    49   30   31 1
    50   30   32 1
    51   32   33 2
    52   32   35 1
    53   33   34 1
    54   33   53 1
    55   35   36 1
    56   35   37 1
    57   35   38 1
@<TRIPOS>MOLECULE
CHEMBL558752__1
   53    57     0     0     0
SMALL
USER_CHARGES

@<TRIPOS>ATOM
      1 C1          0.0889    1.3304    0.4875 C.3       1 <0>         0.0749
      2 N1          0.4081   -0.0537    0.1285 N.pl3     1 <0>        -0.5086
      3 C2          0.3527   -0.6079   -1.1416 C.ar      1 <0>         0.0506
      4 C3          0.0140   -0.1123   -2.3916 C.ar      1 <0>        -0.0839
      5 C4          0.0596   -0.9387   -3.4948 C.ar      1 <0>        -0.1078
      6 C5          0.4437   -2.2696   -3.3617 C.ar      1 <0>         0.0757
      7 C6          0.7841   -2.7780   -2.1232 C.ar      1 <0>        -0.0835
      8 C7          0.7419   -1.9497   -0.9988 C.ar      1 <0>         0.0911
      9 N2          1.0107   -2.1505    0.3179 N.2       1 <0>        -0.5208
     10 C8          0.8211   -1.0370    0.9810 C.2       1 <0>         0.5367
     11 N3          1.0071   -0.8817    2.3399 N.pl3     1 <0>        -0.6412
     12 C9          1.5327   -1.9323    3.0980 C.ar      1 <0>         0.2054
     13 C10         2.3996   -2.8467    2.5135 C.ar      1 <0>        -0.1275
     14 C11         2.9174   -3.8830    3.2654 C.ar      1 <0>        -0.0424
     15 C12         2.5732   -4.0112    4.5986 C.ar      1 <0>        -0.2054
     16 C13         1.7104   -3.1025    5.1836 C.ar      1 <0>        -0.0433
     17 C14         1.1936   -2.0606    4.4389 C.ar      1 <0>        -0.1550
     18 C15         3.1394   -5.1438    5.4157 C.3       1 <0>         0.5100
     19 F1          4.3409   -4.7378    6.0061 F         1 <0>        -0.1770
     20 F2          2.2264   -5.5006    6.4139 F         1 <0>        -0.1779
     21 F3          3.3764   -6.2447    4.5855 F         1 <0>        -0.1766
     22 O1          0.4838   -3.0743   -4.4569 O.3       1 <0>        -0.2393
     23 C16        -0.5201   -3.9723   -4.6250 C.ar      1 <0>         0.1705
     24 C17        -1.5524   -4.0718   -3.6931 C.ar      1 <0>        -0.2358
     25 C18        -2.5584   -4.9956   -3.8944 C.ar      1 <0>         0.1462
     26 N4         -2.5556   -5.7821   -4.9520 N.ar      1 <0>        -0.5024
     27 C19        -1.5923   -5.7220   -5.8654 C.ar      1 <0>         0.2250
     28 C20        -0.5469   -4.8111   -5.7335 C.ar      1 <0>        -0.1498
     29 C21        -1.6337   -6.6263   -7.0352 C.2       1 <0>         0.2675
     30 N5         -0.7486   -6.6697   -8.0059 N.2       1 <0>        -0.4231
     31 H1         -3.3697   -7.7554   -6.7387 H         1 <0>         0.4388
     32 C22        -1.1086   -7.6064   -8.8890 C.2       1 <0>        -0.0925
     33 C23        -2.2574   -8.1732   -8.4636 C.2       1 <0>         0.0426
     34 N6         -2.5940   -7.5620   -7.2880 N.pl3     1 <0>        -0.5345
     35 C24        -0.3597   -7.9678  -10.1459 C.3       1 <0>         0.5560
     36 F4          0.8402   -7.2503  -10.1963 F         1 <0>        -0.1637
     37 F5         -0.0835   -9.3392  -10.1461 F         1 <0>        -0.1724
     38 F6         -1.1408   -7.6492  -11.2620 F         1 <0>        -0.1726
     39 H2          0.9882    1.9418    0.4124 H         1 <0>         0.0803
     40 H3         -0.6706    1.7162   -0.1925 H         1 <0>         0.0932
     41 H4         -0.2882    1.3629    1.5096 H         1 <0>         0.0840
     42 H5         -0.2856    0.9195   -2.5011 H         1 <0>         0.1336
     43 H6         -0.2047   -0.5508   -4.4675 H         1 <0>         0.1432
     44 H7          1.0813   -3.8116   -2.0244 H         1 <0>         0.1404
     45 H8          0.7732   -0.0438    2.7688 H         1 <0>         0.4222
     46 H9          2.6683   -2.7476    1.4722 H         1 <0>         0.1551
     47 H10         3.5915   -4.5943    2.8115 H         1 <0>         0.1402
     48 H11         1.4436   -3.2055    6.2251 H         1 <0>         0.1410
     49 H12         0.5233   -1.3487    4.8975 H         1 <0>         0.1373
     50 H13        -1.5646   -3.4329   -2.8224 H         1 <0>         0.1462
     51 H14        -3.3595   -5.0751   -3.1745 H         1 <0>         0.1681
     52 H15         0.2333   -4.7601   -6.4786 H         1 <0>         0.1604
     53 H16        -2.8052   -8.9625   -8.9568 H         1 <0>         0.2004
@<TRIPOS>BOND
     1    1    2 1
     2    1   39 1
     3    1   40 1
     4    1   41 1
     5    2   10 1
     6    2    3 1
     7    3    8 ar
     8    3    4 ar
     9    4    5 ar
    10    4   42 1
    11    5    6 ar
    12    5   43 1
    13    6    7 ar
    14    6   22 1
    15    7    8 ar
    16    7   44 1
    17    8    9 1
    18    9   10 2
    19   10   11 1
    20   11   12 1
    21   11   45 1
    22   12   17 ar
    23   12   13 ar
    24   13   14 ar
    25   13   46 1
    26   14   15 ar
    27   14   47 1
    28   15   16 ar
    29   15   18 1
    30   16   17 ar
    31   16   48 1
    32   17   49 1
    33   18   19 1
    34   18   20 1
    35   18   21 1
    36   22   23 1
    37   23   28 ar
    38   23   24 ar
    39   24   25 ar
    40   24   50 1
    41   25   26 ar
    42   25   51 1
    43   26   27 ar
    44   27   28 ar
    45   27   29 1
    46   28   52 1
    47   29   30 2
    48   29   34 1
    49   30   32 1
    50   31   34 1
    51   32   35 1
    52   32   33 2
    53   33   53 1
    54   33   34 1
    55   35   36 1
    56   35   37 1
    57   35   38 1
@<TRIPOS>MOLECULE
CHEMBL432189
   61    65     0     0     0
SMALL
USER_CHARGES

@<TRIPOS>ATOM
      1 C1         -1.4172    1.1775    0.2225 C.3       1 <0>        -0.1163
      2 C2         -0.7178   -0.1514    0.0957 C.ar      1 <0>        -0.0841
      3 C3         -0.7330   -0.8285   -1.1085 C.ar      1 <0>        -0.1046
      4 C4         -0.0914   -2.0475   -1.2265 C.ar      1 <0>        -0.1031
      5 C5          0.5678   -2.5936   -0.1402 C.ar      1 <0>        -0.1057
      6 C6          0.5871   -1.9218    1.0671 C.ar      1 <0>        -0.0234
      7 C7         -0.0527   -0.6935    1.1871 C.ar      1 <0>         0.1395
      8 N1         -0.0310   -0.0077    2.4063 N.am      1 <0>        -0.6682
      9 C8         -0.4055   -0.6347    3.5390 C.2       1 <0>         0.5549
     10 O1         -0.6653   -1.8227    3.5190 O.2       1 <0>        -0.4886
     11 C9         -0.5002    0.1195    4.8024 C.ar      1 <0>        -0.1028
     12 C10        -0.2088    1.4905    4.8363 C.ar      1 <0>        -0.0749
     13 C11        -0.2900    2.2030    5.9867 C.ar      1 <0>        -0.0610
     14 C12        -0.6741    1.5860    7.2034 C.ar      1 <0>         0.1186
     15 C13        -0.9633    0.2006    7.1436 C.ar      1 <0>        -0.1564
     16 C14        -0.8880   -0.5209    5.9844 C.ar      1 <0>         0.0064
     17 S1         -1.3894   -0.1703    8.8282 S.3       1 <0>         0.0786
     18 C15        -1.1651    1.4773    9.4836 C.2       1 <0>         0.3338
     19 N2         -0.7991    2.1554    8.4179 N.2       1 <0>        -0.4900
     20 N3         -1.3337    1.9245   10.7789 N.pl3     1 <0>        -0.5570
     21 C16        -1.2130    3.2767   11.0675 C.ar      1 <0>         0.5187
     22 C17        -1.4919    3.7550   12.3493 C.ar      1 <0>        -0.2626
     23 C18        -1.3583    5.1085   12.5911 C.ar      1 <0>         0.2504
     24 N4         -0.9723    5.9076   11.6073 N.ar      1 <0>        -0.5690
     25 C19        -0.7147    5.4261   10.4003 C.ar      1 <0>         0.6522
     26 N5         -0.8250    4.1341   10.1294 N.ar      1 <0>        -0.5196
     27 N6         -0.3142    6.2936    9.3991 N.pl3     1 <0>        -0.6575
     28 C20        -0.1799    7.7250    9.6806 C.3       1 <0>         0.0780
     29 C21         0.2724    8.4537    8.4135 C.3       1 <0>         0.0705
     30 C22         0.5276    9.9433    8.7289 C.3       1 <0>        -0.1484
     31 C23        -0.0307   10.6486    7.4628 C.3       1 <0>        -0.1570
     32 C24        -1.2159    9.7166    7.1055 C.3       1 <0>         0.0476
     33 O2         -0.7601    8.3918    7.4226 O.3       1 <0>        -0.3746
     34 C25        -1.6490    5.6701   13.9590 C.3       1 <0>        -0.1409
     35 Cl1         1.4143   -2.6078    2.4305 Cl        1 <0>        -0.0457
     36 H1         -0.7239    1.9788   -0.0332 H         1 <0>         0.0760
     37 H2         -2.2704    1.2051   -0.4552 H         1 <0>         0.0763
     38 H3         -1.7630    1.3096    1.2477 H         1 <0>         0.0663
     39 H4         -1.2472   -0.4052   -1.9587 H         1 <0>         0.1353
     40 H5         -0.1054   -2.5746   -2.1690 H         1 <0>         0.1371
     41 H6          1.0678   -3.5462   -0.2356 H         1 <0>         0.1384
     42 H7          0.2537    0.9191    2.4364 H         1 <0>         0.4105
     43 H8          0.0873    1.9900    3.9257 H         1 <0>         0.1403
     44 H9         -0.0578    3.2577    5.9759 H         1 <0>         0.1425
     45 H10        -1.1214   -1.5754    5.9821 H         1 <0>         0.1538
     46 H11        -1.5365    1.2936   11.4873 H         1 <0>         0.4573
     47 H12        -1.8054    3.0822   13.1338 H         1 <0>         0.1910
     48 H13        -0.1225    5.9539    8.5110 H         1 <0>         0.4471
     49 H14        -1.1413    8.1233   10.0051 H         1 <0>         0.0911
     50 H15         0.5591    7.8727   10.4680 H         1 <0>         0.0971
     51 H16         1.1828    7.9947    8.0282 H         1 <0>         0.1008
     52 H17        -0.0218   10.2511    9.6185 H         1 <0>         0.0838
     53 H18         1.5939   10.1384    8.8432 H         1 <0>         0.0952
     54 H19        -0.3786   11.6551    7.6951 H         1 <0>         0.0932
     55 H20         0.7104   10.6657    6.6637 H         1 <0>         0.0865
     56 H21        -2.0902    9.9696    7.7052 H         1 <0>         0.0654
     57 H22        -1.4498    9.7922    6.0436 H         1 <0>         0.0957
     58 H23        -0.7376    5.6608   14.5567 H         1 <0>         0.1208
     59 H24        -2.0095    6.6942   13.8621 H         1 <0>         0.1004
     60 H25        -2.4101    5.0616   14.4474 H         1 <0>         0.1218
     61 H26        -0.8773    6.8586   11.7730 H         1 <0>         0.4389
@<TRIPOS>BOND
     1    1    2 1
     2    1   36 1
     3    1   37 1
     4    1   38 1
     5    2    7 ar
     6    2    3 ar
     7    3    4 ar
     8    3   39 1
     9    4    5 ar
    10    4   40 1
    11    5    6 ar
    12    5   41 1
    13    6    7 ar
    14    6   35 1
    15    7    8 1
    16    8    9 am
    17    8   42 1
    18    9   10 2
    19    9   11 1
    20   11   16 ar
    21   11   12 ar
    22   12   13 ar
    23   12   43 1
    24   13   14 ar
    25   13   44 1
    26   14   19 1
    27   14   15 ar
    28   15   16 ar
    29   15   17 1
    30   16   45 1
    31   17   18 1
    32   18   19 2
    33   18   20 1
    34   20   21 1
    35   20   46 1
    36   21   26 ar
    37   21   22 ar
    38   22   23 ar
    39   22   47 1
    40   23   24 ar
    41   23   34 1
    42   24   25 ar
    43   24   61 1
    44   25   26 ar
    45   25   27 1
    46   27   28 1
    47   27   48 1
    48   28   29 1
    49   28   49 1
    50   28   50 1
    51   29   33 1
    52   29   30 1
    53   29   51 1
    54   30   31 1
    55   30   52 1
    56   30   53 1
    57   31   32 1
    58   31   54 1
    59   31   55 1
    60   32   33 1
    61   32   56 1
    62   32   57 1
    63   34   58 1
    64   34   59 1
    65   34   60 1
@<TRIPOS>MOLECULE
CHEMBL432189__1
   61    65     0     0     0
SMALL
USER_CHARGES

@<TRIPOS>ATOM
      1 C1         -1.4172    1.1775    0.2225 C.3       1 <0>        -0.1162
      2 C2         -0.7178   -0.1514    0.0957 C.ar      1 <0>        -0.0843
      3 C3         -0.7330   -0.8285   -1.1085 C.ar      1 <0>        -0.1046
      4 C4         -0.0914   -2.0475   -1.2265 C.ar      1 <0>        -0.1031
      5 C5          0.5678   -2.5936   -0.1402 C.ar      1 <0>        -0.1056
      6 C6          0.5871   -1.9218    1.0671 C.ar      1 <0>        -0.0234
      7 C7         -0.0527   -0.6935    1.1871 C.ar      1 <0>         0.1395
      8 N1         -0.0310   -0.0077    2.4063 N.am      1 <0>        -0.6682
      9 C8         -0.4055   -0.6347    3.5390 C.2       1 <0>         0.5549
     10 O1         -0.6653   -1.8227    3.5190 O.2       1 <0>        -0.4886
     11 C9         -0.5002    0.1195    4.8024 C.ar      1 <0>        -0.1029
     12 C10        -0.2088    1.4905    4.8363 C.ar      1 <0>        -0.0750
     13 C11        -0.2900    2.2030    5.9867 C.ar      1 <0>        -0.0612
     14 C12        -0.6741    1.5860    7.2034 C.ar      1 <0>         0.1187
     15 C13        -0.9633    0.2006    7.1436 C.ar      1 <0>        -0.1565
     16 C14        -0.8880   -0.5209    5.9844 C.ar      1 <0>         0.0065
     17 S1         -1.3894   -0.1703    8.8282 S.3       1 <0>         0.0787
     18 C15        -1.1651    1.4773    9.4836 C.2       1 <0>         0.3341
     19 N2         -0.7991    2.1554    8.4179 N.2       1 <0>        -0.4901
     20 N3         -1.3337    1.9245   10.7789 N.pl3     1 <0>        -0.5571
     21 C16        -1.2130    3.2767   11.0675 C.ar      1 <0>         0.5187
     22 C17        -1.4919    3.7550   12.3493 C.ar      1 <0>        -0.2626
     23 C18        -1.3583    5.1085   12.5911 C.ar      1 <0>         0.2507
     24 N4         -0.9723    5.9076   11.6073 N.ar      1 <0>        -0.5690
     25 C19        -0.7147    5.4261   10.4003 C.ar      1 <0>         0.6525
     26 N5         -0.8250    4.1341   10.1294 N.ar      1 <0>        -0.5195
     27 N6         -0.3142    6.2936    9.3991 N.pl3     1 <0>        -0.6580
     28 C20        -0.1799    7.7250    9.6806 C.3       1 <0>         0.0916
     29 C21         0.2724    8.4537    8.4135 C.3       1 <0>         0.0687
     30 C22         0.4894    9.9595    8.7075 C.3       1 <0>        -0.1486
     31 C23         1.5025   10.3346    7.5918 C.3       1 <0>        -0.1565
     32 C24         2.3370    9.0426    7.4591 C.3       1 <0>         0.0501
     33 O2          1.5549    7.9658    7.9887 O.3       1 <0>        -0.3792
     34 C25        -1.6490    5.6701   13.9590 C.3       1 <0>        -0.1409
     35 Cl1         1.4143   -2.6078    2.4305 Cl        1 <0>        -0.0456
     36 H1         -0.7239    1.9788   -0.0332 H         1 <0>         0.0759
     37 H2         -2.2704    1.2051   -0.4552 H         1 <0>         0.0763
     38 H3         -1.7630    1.3096    1.2477 H         1 <0>         0.0662
     39 H4         -1.2472   -0.4052   -1.9587 H         1 <0>         0.1353
     40 H5         -0.1054   -2.5746   -2.1690 H         1 <0>         0.1371
     41 H6          1.0678   -3.5462   -0.2356 H         1 <0>         0.1385
     42 H7          0.2537    0.9191    2.4364 H         1 <0>         0.4105
     43 H8          0.0873    1.9900    3.9257 H         1 <0>         0.1402
     44 H9         -0.0578    3.2577    5.9759 H         1 <0>         0.1423
     45 H10        -1.1214   -1.5754    5.9821 H         1 <0>         0.1538
     46 H11        -1.5365    1.2936   11.4873 H         1 <0>         0.4573
     47 H12        -1.8054    3.0822   13.1338 H         1 <0>         0.1910
     48 H13        -0.1225    5.9539    8.5110 H         1 <0>         0.4479
     49 H14        -1.1413    8.1233   10.0051 H         1 <0>         0.0995
     50 H15         0.5591    7.8727   10.4680 H         1 <0>         0.0934
     51 H16        -0.4636    8.3239    7.6200 H         1 <0>         0.0918
     52 H17        -0.4398   10.5189    8.5988 H         1 <0>         0.0947
     53 H18         0.9218   10.1082    9.6970 H         1 <0>         0.0860
     54 H19         0.9861   10.5605    6.6589 H         1 <0>         0.0844
     55 H20         2.1290   11.1709    7.9020 H         1 <0>         0.0923
     56 H21         2.5626    8.8543    6.4094 H         1 <0>         0.0783
     57 H22         3.2630    9.1406    8.0257 H         1 <0>         0.0770
     58 H23        -0.7376    5.6608   14.5567 H         1 <0>         0.1208
     59 H24        -2.0095    6.6942   13.8621 H         1 <0>         0.1006
     60 H25        -2.4101    5.0616   14.4474 H         1 <0>         0.1218
     61 H26        -0.8773    6.8586   11.7730 H         1 <0>         0.4390
@<TRIPOS>BOND
     1    1    2 1
     2    1   36 1
     3    1   37 1
     4    1   38 1
     5    2    7 ar
     6    2    3 ar
     7    3    4 ar
     8    3   39 1
     9    4    5 ar
    10    4   40 1
    11    5    6 ar
    12    5   41 1
    13    6    7 ar
    14    6   35 1
    15    7    8 1
    16    8    9 am
    17    8   42 1
    18    9   10 2
    19    9   11 1
    20   11   16 ar
    21   11   12 ar
    22   12   13 ar
    23   12   43 1
    24   13   14 ar
    25   13   44 1
    26   14   19 1
    27   14   15 ar
    28   15   16 ar
    29   15   17 1
    30   16   45 1
    31   17   18 1
    32   18   19 2
    33   18   20 1
    34   20   21 1
    35   20   46 1
    36   21   26 ar
    37   21   22 ar
    38   22   23 ar
    39   22   47 1
    40   23   24 ar
    41   23   34 1
    42   24   25 ar
    43   24   61 1
    44   25   26 ar
    45   25   27 1
    46   27   28 1
    47   27   48 1
    48   28   29 1
    49   28   49 1
    50   28   50 1
    51   29   33 1
    52   29   30 1
    53   29   51 1
    54   30   31 1
    55   30   52 1
    56   30   53 1
    57   31   32 1
    58   31   54 1
    59   31   55 1
    60   32   33 1
    61   32   56 1
    62   32   57 1
    63   34   58 1
    64   34   59 1
    65   34   60 1
@<TRIPOS>MOLECULE
CHEMBL102362
   31    32     0     0     0
SMALL
USER_CHARGES

@<TRIPOS>ATOM
      1 C1         -0.0169    1.3959    0.0097 C.ar      1 <0>        -0.0946
      2 C2          1.1631    2.1063    0.0023 C.ar      1 <0>        -0.1704
      3 C3          2.3810    1.4401   -0.0134 C.ar      1 <0>         0.1501
      4 C4          2.4134    0.0361   -0.0213 C.ar      1 <0>        -0.1664
      5 C5          1.2180   -0.6840   -0.0133 C.ar      1 <0>        -0.0471
      6 C6          0.0021   -0.0041    0.0020 C.ar      1 <0>        -0.1068
      7 C7         -1.2640   -0.7584    0.0106 C.2       1 <0>        -0.0601
      8 C8         -2.4361   -0.1029    0.0257 C.2       1 <0>        -0.1468
      9 C9         -3.7015   -0.8568    0.0343 C.ar      1 <0>        -0.0432
     10 C10        -3.6864   -2.2538    0.0325 C.ar      1 <0>        -0.1328
     11 C11        -4.8789   -2.9550    0.0410 C.ar      1 <0>         0.1019
     12 C12        -6.0890   -2.2738    0.0509 C.ar      1 <0>        -0.1396
     13 C13        -6.1121   -0.8918    0.0523 C.ar      1 <0>        -0.1259
     14 C14        -4.9266   -0.1762    0.0501 C.ar      1 <0>         0.0976
     15 O1         -4.9511    1.1826    0.0572 O.3       1 <0>        -0.4930
     16 O2         -4.8660   -4.3148    0.0393 O.3       1 <0>        -0.4988
     17 C15         3.7032   -0.6731   -0.0384 C.2       1 <0>         0.5199
     18 O3          3.7287   -1.8962   -0.0452 O.co2     1 <0>        -0.6907
     19 O4          4.7497   -0.0395   -0.0458 O.co2     1 <0>        -0.6703
     20 O5          3.5391    2.1450   -0.0216 O.3       1 <0>        -0.4748
     21 H1         -0.9606    1.9209    0.0261 H         1 <0>         0.1214
     22 H2          1.1408    3.1860    0.0083 H         1 <0>         0.1228
     23 H3          1.2354   -1.7638   -0.0193 H         1 <0>         0.1325
     24 H4         -1.2493   -1.8382    0.0046 H         1 <0>         0.1205
     25 H5         -2.4508    0.9770    0.0317 H         1 <0>         0.1285
     26 H6         -2.7461   -2.7849    0.0241 H         1 <0>         0.1378
     27 H7         -7.0168   -2.8266    0.0572 H         1 <0>         0.1305
     28 H8         -7.0570   -0.3688    0.0593 H         1 <0>         0.1322
     29 H9         -4.9671    1.5803   -0.8240 H         1 <0>         0.3892
     30 H10        -4.8554   -4.7091    0.9222 H         1 <0>         0.3910
     31 H11         3.8840    2.3450    0.8594 H         1 <0>         0.3858
@<TRIPOS>BOND
     1    1    6 ar
     2    1    2 ar
     3    1   21 1
     4    2    3 ar
     5    2   22 1
     6    3    4 ar
     7    3   20 1
     8    4    5 ar
     9    4   17 1
    10    5    6 ar
    11    5   23 1
    12    6    7 1
    13    7    8 2
    14    7   24 1
    15    8    9 1
    16    8   25 1
    17    9   14 ar
    18    9   10 ar
    19   10   11 ar
    20   10   26 1
    21   11   12 ar
    22   11   16 1
    23   12   13 ar
    24   12   27 1
    25   13   14 ar
    26   13   28 1
    27   14   15 1
    28   15   29 1
    29   16   30 1
    30   17   18 2
    31   17   19 1
    32   20   31 1
@<TRIPOS>MOLECULE
CHEMBL302481
   50    53     0     0     0
SMALL
USER_CHARGES

@<TRIPOS>ATOM
      1 C1         -0.2729    1.5615   -0.1403 C.3       1 <0>        -0.1598
      2 C2         -0.1989    0.0336   -0.1084 C.3       1 <0>         0.1600
      3 C3          0.5170   -0.4158    1.1670 C.3       1 <0>        -0.1608
      4 C4         -1.6146   -0.5461   -0.1298 C.3       1 <0>        -0.1604
      5 N1          0.5421   -0.4439   -1.2784 N.pl3     1 <0>        -0.4448
      6 C5          1.0862    0.3616   -2.2423 C.2       1 <0>         0.0649
      7 C6          1.7014   -0.4011   -3.1791 C.2       1 <0>        -0.1110
      8 C7          1.5247   -1.7979   -2.7621 C.ar      1 <0>        -0.2542
      9 C8          0.7946   -1.7590   -1.5613 C.ar      1 <0>         0.3519
     10 N2          0.4979   -2.9103   -0.9597 N.ar      1 <0>        -0.5662
     11 C9          0.8824   -4.0572   -1.4768 C.ar      1 <0>         0.3600
     12 N3          1.5717   -4.1377   -2.6004 N.ar      1 <0>        -0.6015
     13 C10         1.9091   -3.0430   -3.2769 C.ar      1 <0>         0.4925
     14 N4          2.6327   -3.1311   -4.4528 N.pl3     1 <0>        -0.8324
     15 C11         2.4130    0.0806   -4.3874 C.ar      1 <0>        -0.0039
     16 C12         3.6950   -0.3857   -4.6755 C.ar      1 <0>        -0.1113
     17 C13         4.3541    0.0639   -5.8005 C.ar      1 <0>        -0.1117
     18 C14         3.7425    0.9802   -6.6454 C.ar      1 <0>         0.0826
     19 C15         2.4662    1.4469   -6.3610 C.ar      1 <0>        -0.1294
     20 C16         1.7994    0.9965   -5.2409 C.ar      1 <0>        -0.0932
     21 O1          4.3947    1.4217   -7.7529 O.3       1 <0>        -0.2549
     22 C17         4.7744    2.7266   -7.7924 C.ar      1 <0>         0.1124
     23 C18         5.3228    3.2547   -8.9521 C.ar      1 <0>        -0.1273
     24 C19         5.7086    4.5803   -8.9920 C.ar      1 <0>        -0.1070
     25 C20         5.5477    5.3835   -7.8727 C.ar      1 <0>         0.0734
     26 C21         4.9999    4.8555   -6.7130 C.ar      1 <0>        -0.1065
     27 C22         4.6083    3.5315   -6.6747 C.ar      1 <0>        -0.1773
     28 O2          5.9276    6.6886   -7.9122 O.3       1 <0>        -0.4969
     29 H1          0.7357    1.9745   -0.1250 H         1 <0>         0.0678
     30 H2         -0.7829    1.8817   -1.0488 H         1 <0>         0.0677
     31 H3         -0.8242    1.9168    0.7303 H         1 <0>         0.0827
     32 H4         -0.0343   -0.0604    2.0375 H         1 <0>         0.0756
     33 H5          0.5697   -1.5042    1.1897 H         1 <0>         0.0783
     34 H6          1.5256   -0.0027    1.1822 H         1 <0>         0.0591
     35 H7         -2.1246   -0.2260   -1.0383 H         1 <0>         0.0591
     36 H8         -1.5619   -1.6346   -0.1070 H         1 <0>         0.0783
     37 H9         -2.1659   -0.1908    0.7408 H         1 <0>         0.0756
     38 H10         1.0328    1.4402   -2.2548 H         1 <0>         0.1787
     39 H11         0.6240   -4.9704   -0.9612 H         1 <0>         0.1986
     40 H12         2.8802   -2.3246   -4.9316 H         1 <0>         0.4107
     41 H13         2.8925   -3.9994   -4.7984 H         1 <0>         0.4075
     42 H14         4.1715   -1.0980   -4.0183 H         1 <0>         0.1346
     43 H15         5.3471   -0.2970   -6.0243 H         1 <0>         0.1375
     44 H16         1.9934    2.1602   -7.0198 H         1 <0>         0.1337
     45 H17         0.8048    1.3564   -5.0227 H         1 <0>         0.1333
     46 H18         5.4484    2.6292   -9.8235 H         1 <0>         0.1385
     47 H19         6.1358    4.9914   -9.8947 H         1 <0>         0.1386
     48 H20         4.8750    5.4809   -5.8414 H         1 <0>         0.1330
     49 H21         4.1773    3.1216   -5.7733 H         1 <0>         0.1344
     50 H22         5.2303    7.2926   -8.2021 H         1 <0>         0.3895
@<TRIPOS>BOND
     1    1    2 1
     2    1   29 1
     3    1   30 1
     4    1   31 1
     5    2    3 1
     6    2    4 1
     7    2    5 1
     8    3   32 1
     9    3   33 1
    10    3   34 1
    11    4   35 1
    12    4   36 1
    13    4   37 1
    14    5    9 1
    15    5    6 1
    16    6    7 2
    17    6   38 1
    18    7    8 1
    19    7   15 1
    20    8   13 ar
    21    8    9 ar
    22    9   10 ar
    23   10   11 ar
    24   11   12 ar
    25   11   39 1
    26   12   13 ar
    27   13   14 1
    28   14   40 1
    29   14   41 1
    30   15   20 ar
    31   15   16 ar
    32   16   17 ar
    33   16   42 1
    34   17   18 ar
    35   17   43 1
    36   18   19 ar
    37   18   21 1
    38   19   20 ar
    39   19   44 1
    40   20   45 1
    41   21   22 1
    42   22   27 ar
    43   22   23 ar
    44   23   24 ar
    45   23   46 1
    46   24   25 ar
    47   24   47 1
    48   25   26 ar
    49   25   28 1
    50   26   27 ar
    51   26   48 1
    52   27   49 1
    53   28   50 1
@<TRIPOS>MOLECULE
CHEMBL396359
   78    83     0     0     0
SMALL
USER_CHARGES

@<TRIPOS>ATOM
      1 C1         -3.6429   -1.0960    0.9839 C.3       1 <0>         0.0752
      2 N1         -2.4380   -0.6687    0.2685 N.pl3     1 <0>        -0.4497
      3 C2         -2.1311   -0.9745   -1.0365 C.ar      1 <0>         0.1165
      4 C3         -2.7834   -1.7118   -2.0208 C.ar      1 <0>        -0.1333
      5 C4         -2.2136   -1.8445   -3.2671 C.ar      1 <0>        -0.0772
      6 C5         -0.9914   -1.2491   -3.5540 C.ar      1 <0>        -0.1428
      7 C6         -0.3332   -0.5217   -2.6058 C.ar      1 <0>        -0.0604
      8 C7         -0.8922   -0.3719   -1.3299 C.ar      1 <0>        -0.1215
      9 C8         -0.4727    0.3018   -0.1574 C.2       1 <0>        -0.1240
     10 C9         -1.4262    0.1126    0.7921 C.2       1 <0>         0.0010
     11 C10        -1.3854    0.6500    2.1600 C.2       1 <0>         0.5963
     12 O1         -2.2499    0.3443    2.9597 O.2       1 <0>        -0.5261
     13 N2         -0.3905    1.4814    2.5280 N.am      1 <0>        -0.6518
     14 C11        -0.3159    1.9427    3.8478 C.ar      1 <0>         0.1475
     15 C12        -1.4766    2.1072    4.5916 C.ar      1 <0>        -0.0898
     16 C13        -1.4065    2.5616    5.8923 C.ar      1 <0>        -0.1290
     17 C14        -0.1690    2.8567    6.4629 C.ar      1 <0>        -0.0559
     18 C15         0.9975    2.6921    5.7176 C.ar      1 <0>        -0.1655
     19 C16         0.9243    2.2310    4.4156 C.ar      1 <0>         0.1145
     20 O2          2.0609    2.0643    3.6880 O.3       1 <0>        -0.3093
     21 C17         3.2964    2.3790    4.3334 C.3       1 <0>         0.0248
     22 C18        -0.0939    3.3455    7.8607 C.2       1 <0>        -0.0219
     23 C19         0.5552    4.4977    8.1913 C.2       1 <0>        -0.1890
     24 S1          0.3303    4.5880    9.9572 S.3       1 <0>         0.3398
     25 C20        -0.5456    3.1996   10.2031 C.2       1 <0>        -0.1892
     26 C21        -0.7108    2.6317    8.9601 C.2       1 <0>        -0.1829
     27 C22        -1.4713    1.3513    8.8790 C.cat     1 <0>         0.6078
     28 N3         -2.1768    0.9933    9.9135 N.pl3     1 <0>        -0.6258
     29 C23        -2.3546    1.8031   11.1103 C.3       1 <0>         0.1030
     30 C24        -1.0872    2.5983   11.4638 C.3       1 <0>        -0.0010
     31 C25        -1.4428    3.6932   12.4364 C.2       1 <0>        -0.0800
     32 C26        -0.8502    3.7442   13.6259 C.2       1 <0>        -0.1754
     33 C27        -1.1973    4.8129   14.5752 C.2       1 <0>         0.5491
     34 O3         -2.0261    5.6498   14.2724 O.2       1 <0>        -0.5228
     35 N4         -0.5967    4.8647   15.7807 N.am      1 <0>        -0.7228
     36 C28        -0.9424    5.9290   16.7262 C.3       1 <0>         0.1339
     37 C29        -0.1004    7.1728   16.4274 C.3       1 <0>        -0.1627
     38 C30        -0.4087    8.2525   17.4669 C.3       1 <0>        -0.0042
     39 N5         -0.0857    7.7518   18.8084 N.4       1 <0>        -0.5072
     40 C31        -0.9401    6.6025   19.1301 C.3       1 <0>        -0.0026
     41 C32        -0.6522    5.4592   18.1546 C.3       1 <0>        -0.1583
     42 N6         -1.4289    0.5706    7.7433 N.pl3     1 <0>        -0.7813
     43 H1         -4.3953   -0.3092    0.9306 H         1 <0>         0.0730
     44 H2         -4.0342   -2.0046    0.5263 H         1 <0>         0.0842
     45 H3         -3.3956   -1.2922    2.0272 H         1 <0>         0.0961
     46 H4         -3.7336   -2.1787   -1.8074 H         1 <0>         0.1240
     47 H5         -2.7213   -2.4173   -4.0290 H         1 <0>         0.1324
     48 H6         -0.5583   -1.3635   -4.5367 H         1 <0>         0.1294
     49 H7          0.6162   -0.0623   -2.8382 H         1 <0>         0.1281
     50 H8          0.4395    0.8680   -0.0401 H         1 <0>         0.1524
     51 H9          0.2739    1.7601    1.8785 H         1 <0>         0.4243
     52 H10        -2.4360    1.8794    4.1511 H         1 <0>         0.1632
     53 H11        -2.3108    2.6891    6.4689 H         1 <0>         0.1289
     54 H12         1.9571    2.9205    6.1573 H         1 <0>         0.1437
     55 H13         3.2924    3.4266    4.6346 H         1 <0>         0.0610
     56 H14         3.4172    1.7482    5.2141 H         1 <0>         0.0587
     57 H15         4.1218    2.2023    3.6439 H         1 <0>         0.1114
     58 H16         1.0770    5.1861    7.5431 H         1 <0>         0.2093
     59 H17        -3.1809    2.4955   10.9489 H         1 <0>         0.1146
     60 H18        -2.6023    1.1488   11.9461 H         1 <0>         0.1350
     61 H19        -0.3398    1.9408   11.9076 H         1 <0>         0.1296
     62 H20        -2.1789    4.4363   12.1674 H         1 <0>         0.1486
     63 H21        -0.1141    3.0011   13.8948 H         1 <0>         0.1397
     64 H22         0.0644    4.1972   16.0222 H         1 <0>         0.4098
     65 H23        -2.0006    6.1722   16.6304 H         1 <0>         0.1083
     66 H24         0.9578    6.9154   16.4728 H         1 <0>         0.0926
     67 H25        -0.3426    7.5458   15.4323 H         1 <0>         0.1169
     68 H26         0.1890    9.1396   17.2570 H         1 <0>         0.1394
     69 H27        -1.4670    8.5093   17.4205 H         1 <0>         0.1350
     70 H28         0.8823    7.4684   18.8364 H         1 <0>         0.4290
     71 H29        -0.7347    6.2713   20.1480 H         1 <0>         0.1417
     72 H30        -1.9871    6.8944   19.0482 H         1 <0>         0.1357
     73 H31        -1.2888    4.6075   18.3940 H         1 <0>         0.1204
     74 H32         0.3946    5.1663   18.2358 H         1 <0>         0.0965
     75 H33        -0.7663    0.7477    7.0574 H         1 <0>         0.4437
     76 H34        -2.0618   -0.1558    7.6303 H         1 <0>         0.4288
     77 H35        -2.6141    0.1280    9.8845 H         1 <0>         0.4314
     78 H36        -0.2394    8.4839   19.4855 H         1 <0>         0.4372
@<TRIPOS>BOND
     1    1    2 1
     2    1   43 1
     3    1   44 1
     4    1   45 1
     5    2   10 1
     6    2    3 1
     7    3    8 ar
     8    3    4 ar
     9    4    5 ar
    10    4   46 1
    11    5    6 ar
    12    5   47 1
    13    6    7 ar
    14    6   48 1
    15    7    8 ar
    16    7   49 1
    17    8    9 1
    18    9   10 2
    19    9   50 1
    20   10   11 1
    21   11   12 2
    22   11   13 am
    23   13   14 1
    24   13   51 1
    25   14   19 ar
    26   14   15 ar
    27   15   16 ar
    28   15   52 1
    29   16   17 ar
    30   16   53 1
    31   17   18 ar
    32   17   22 1
    33   18   19 ar
    34   18   54 1
    35   19   20 1
    36   20   21 1
    37   21   55 1
    38   21   56 1
    39   21   57 1
    40   22   26 1
    41   22   23 2
    42   23   24 1
    43   23   58 1
    44   24   25 1
    45   25   30 1
    46   25   26 2
    47   26   27 1
    48   27   28 2
    49   27   42 1
    50   28   29 1
    51   28   77 1
    52   29   30 1
    53   29   59 1
    54   29   60 1
    55   30   31 1
    56   30   61 1
    57   31   32 2
    58   31   62 1
    59   32   33 1
    60   32   63 1
    61   33   34 2
    62   33   35 am
    63   35   36 1
    64   35   64 1
    65   36   41 1
    66   36   37 1
    67   36   65 1
    68   37   38 1
    69   37   66 1
    70   37   67 1
    71   38   39 1
    72   38   68 1
    73   38   69 1
    74   39   40 1
    75   39   70 1
    76   39   78 1
    77   40   41 1
    78   40   71 1
    79   40   72 1
    80   41   73 1
    81   41   74 1
    82   42   75 1
    83   42   76 1
@<TRIPOS>MOLECULE
CHEMBL396359__1
   78    83     0     0     0
SMALL
USER_CHARGES

@<TRIPOS>ATOM
      1 C1         -3.6429   -1.0960    0.9839 C.3       1 <0>         0.0752
      2 N1         -2.4380   -0.6687    0.2685 N.pl3     1 <0>        -0.4497
      3 C2         -2.1311   -0.9745   -1.0365 C.ar      1 <0>         0.1165
      4 C3         -2.7834   -1.7118   -2.0208 C.ar      1 <0>        -0.1334
      5 C4         -2.2136   -1.8445   -3.2671 C.ar      1 <0>        -0.0772
      6 C5         -0.9914   -1.2491   -3.5540 C.ar      1 <0>        -0.1428
      7 C6         -0.3332   -0.5217   -2.6058 C.ar      1 <0>        -0.0604
      8 C7         -0.8922   -0.3719   -1.3299 C.ar      1 <0>        -0.1215
      9 C8         -0.4727    0.3018   -0.1574 C.2       1 <0>        -0.1242
     10 C9         -1.4262    0.1126    0.7921 C.2       1 <0>         0.0012
     11 C10        -1.3854    0.6500    2.1600 C.2       1 <0>         0.5962
     12 O1         -2.2499    0.3443    2.9597 O.2       1 <0>        -0.5262
     13 N2         -0.3905    1.4814    2.5280 N.am      1 <0>        -0.6518
     14 C11        -0.3159    1.9427    3.8478 C.ar      1 <0>         0.1472
     15 C12        -1.4766    2.1072    4.5916 C.ar      1 <0>        -0.0896
     16 C13        -1.4065    2.5616    5.8923 C.ar      1 <0>        -0.1286
     17 C14        -0.1690    2.8567    6.4629 C.ar      1 <0>        -0.0551
     18 C15         0.9975    2.6921    5.7176 C.ar      1 <0>        -0.1658
     19 C16         0.9243    2.2310    4.4156 C.ar      1 <0>         0.1142
     20 O2          2.0609    2.0643    3.6880 O.3       1 <0>        -0.3095
     21 C17         3.2964    2.3790    4.3334 C.3       1 <0>         0.0250
     22 C18        -0.0939    3.3455    7.8607 C.2       1 <0>        -0.0236
     23 C19         0.5552    4.4977    8.1913 C.2       1 <0>        -0.1869
     24 S1          0.3303    4.5880    9.9572 S.3       1 <0>         0.3445
     25 C20        -0.5456    3.1996   10.2031 C.2       1 <0>        -0.1920
     26 C21        -0.7108    2.6317    8.9601 C.2       1 <0>        -0.1806
     27 C22        -1.4713    1.3513    8.8790 C.cat     1 <0>         0.6075
     28 N3         -2.1768    0.9933    9.9135 N.pl3     1 <0>        -0.6260
     29 C23        -2.3546    1.8031   11.1103 C.3       1 <0>         0.1042
     30 C24        -1.0872    2.5983   11.4638 C.3       1 <0>        -0.0029
     31 C25        -0.0538    1.6892   12.0774 C.2       1 <0>        -0.0764
     32 C26         0.4044    1.9341   13.3016 C.2       1 <0>        -0.1800
     33 C27         1.4132    1.0467   13.9006 C.2       1 <0>         0.5499
     34 O3          1.8281    0.0891   13.2763 O.2       1 <0>        -0.5285
     35 N4          1.8776    1.2949   15.1413 N.am      1 <0>        -0.7220
     36 C28         2.8822    0.4112   15.7378 C.3       1 <0>         0.1340
     37 C29         2.1861   -0.7783   16.4055 C.3       1 <0>        -0.1624
     38 C30         3.2343   -1.6548   17.0943 C.3       1 <0>        -0.0039
     39 N5          3.9442   -0.8681   18.1101 N.4       1 <0>        -0.5072
     40 C31         4.6727    0.2326   17.4682 C.3       1 <0>        -0.0025
     41 C32         3.6798    1.1818   16.7938 C.3       1 <0>        -0.1584
     42 N6         -1.4289    0.5706    7.7433 N.pl3     1 <0>        -0.7824
     43 H1         -4.3953   -0.3092    0.9306 H         1 <0>         0.0732
     44 H2         -4.0342   -2.0046    0.5263 H         1 <0>         0.0841
     45 H3         -3.3956   -1.2922    2.0272 H         1 <0>         0.0959
     46 H4         -3.7336   -2.1787   -1.8074 H         1 <0>         0.1240
     47 H5         -2.7213   -2.4173   -4.0290 H         1 <0>         0.1325
     48 H6         -0.5583   -1.3635   -4.5367 H         1 <0>         0.1294
     49 H7          0.6162   -0.0623   -2.8382 H         1 <0>         0.1281
     50 H8          0.4395    0.8680   -0.0401 H         1 <0>         0.1523
     51 H9          0.2739    1.7601    1.8785 H         1 <0>         0.4243
     52 H10        -2.4360    1.8794    4.1511 H         1 <0>         0.1633
     53 H11        -2.3108    2.6891    6.4689 H         1 <0>         0.1292
     54 H12         1.9571    2.9205    6.1573 H         1 <0>         0.1433
     55 H13         3.2924    3.4266    4.6346 H         1 <0>         0.0613
     56 H14         3.4172    1.7482    5.2141 H         1 <0>         0.0580
     57 H15         4.1218    2.2023    3.6439 H         1 <0>         0.1111
     58 H16         1.0770    5.1861    7.5431 H         1 <0>         0.2097
     59 H17        -3.1809    2.4955   10.9489 H         1 <0>         0.1202
     60 H18        -2.6023    1.1488   11.9461 H         1 <0>         0.1331
     61 H19        -1.3444    3.3902   12.1672 H         1 <0>         0.1417
     62 H20         0.3147    0.8388   11.5230 H         1 <0>         0.1355
     63 H21         0.0359    2.7846   13.8560 H         1 <0>         0.1419
     64 H22         1.5466    2.0588   15.6392 H         1 <0>         0.4106
     65 H23         3.5577    0.0510   14.9618 H         1 <0>         0.1072
     66 H24         1.4730   -0.4143   17.1452 H         1 <0>         0.0930
     67 H25         1.6614   -1.3637   15.6505 H         1 <0>         0.1153
     68 H26         2.7421   -2.5027   17.5706 H         1 <0>         0.1393
     69 H27         3.9467   -2.0184   16.3537 H         1 <0>         0.1344
     70 H28         3.2784   -0.4910   18.7678 H         1 <0>         0.4294
     71 H29         5.2424    0.7781   18.2205 H         1 <0>         0.1423
     72 H30         5.3544   -0.1712   16.7197 H         1 <0>         0.1353
     73 H31         4.2229    1.9974   16.3163 H         1 <0>         0.1207
     74 H32         2.9978    1.5864   17.5416 H         1 <0>         0.0972
     75 H33        -0.7663    0.7477    7.0574 H         1 <0>         0.4434
     76 H34        -2.0618   -0.1558    7.6303 H         1 <0>         0.4283
     77 H35        -2.6141    0.1280    9.8845 H         1 <0>         0.4301
     78 H36         4.5969   -1.4624   18.5987 H         1 <0>         0.4374
@<TRIPOS>BOND
     1    1    2 1
     2    1   43 1
     3    1   44 1
     4    1   45 1
     5    2   10 1
     6    2    3 1
     7    3    8 ar
     8    3    4 ar
     9    4    5 ar
    10    4   46 1
    11    5    6 ar
    12    5   47 1
    13    6    7 ar
    14    6   48 1
    15    7    8 ar
    16    7   49 1
    17    8    9 1
    18    9   10 2
    19    9   50 1
    20   10   11 1
    21   11   12 2
    22   11   13 am
    23   13   14 1
    24   13   51 1
    25   14   19 ar
    26   14   15 ar
    27   15   16 ar
    28   15   52 1
    29   16   17 ar
    30   16   53 1
    31   17   18 ar
    32   17   22 1
    33   18   19 ar
    34   18   54 1
    35   19   20 1
    36   20   21 1
    37   21   55 1
    38   21   56 1
    39   21   57 1
    40   22   26 1
    41   22   23 2
    42   23   24 1
    43   23   58 1
    44   24   25 1
    45   25   30 1
    46   25   26 2
    47   26   27 1
    48   27   28 2
    49   27   42 1
    50   28   29 1
    51   28   77 1
    52   29   30 1
    53   29   59 1
    54   29   60 1
    55   30   31 1
    56   30   61 1
    57   31   32 2
    58   31   62 1
    59   32   33 1
    60   32   63 1
    61   33   34 2
    62   33   35 am
    63   35   36 1
    64   35   64 1
    65   36   41 1
    66   36   37 1
    67   36   65 1
    68   37   38 1
    69   37   66 1
    70   37   67 1
    71   38   39 1
    72   38   68 1
    73   38   69 1
    74   39   40 1
    75   39   70 1
    76   39   78 1
    77   40   41 1
    78   40   71 1
    79   40   72 1
    80   41   73 1
    81   41   74 1
    82   42   75 1
    83   42   76 1
@<TRIPOS>MOLECULE
CHEMBL219557
   66    70     0     0     0
SMALL
USER_CHARGES

@<TRIPOS>ATOM
      1 C1         -9.4284   -1.2974    1.8884 C.3       1 <0>        -0.0459
      2 N1         -9.6271   -2.4182    2.8170 N.4       1 <0>        -0.3888
      3 C2         -9.9380   -1.8964    4.1544 C.3       1 <0>        -0.0021
      4 C3        -10.1636   -3.0637    5.1178 C.3       1 <0>         0.0252
      5 N2         -8.9529   -3.8956    5.1670 N.3       1 <0>        -0.5375
      6 C4         -8.6149   -4.4049    3.8304 C.3       1 <0>         0.0230
      7 C5         -8.4021   -3.2265    2.8776 C.3       1 <0>        -0.0017
      8 C6         -9.1097   -4.9972    6.1260 C.3       1 <0>         0.1420
      9 C7         -7.7803   -5.6763    6.3327 C.2       1 <0>        -0.0305
     10 C8         -6.8725   -5.3462    7.2664 C.2       1 <0>        -0.1518
     11 C9         -5.7507   -6.2751    7.0870 C.2       1 <0>        -0.1498
     12 C10        -6.1009   -7.0808    6.0503 C.2       1 <0>         0.0209
     13 O1         -7.3151   -6.7119    5.6176 O.3       1 <0>        -0.1813
     14 C11        -4.4949   -6.3243    7.8741 C.ar      1 <0>        -0.0026
     15 C12        -3.7699   -5.1647    8.0822 C.ar      1 <0>        -0.0451
     16 C13        -2.5830   -5.2116    8.8267 C.ar      1 <0>         0.1250
     17 C14        -2.1462   -6.4512    9.3545 C.ar      1 <0>        -0.0677
     18 C15        -2.8981   -7.6140    9.1308 C.ar      1 <0>        -0.1861
     19 C16        -4.0537   -7.5490    8.4078 C.ar      1 <0>         0.1501
     20 O2         -4.7819   -8.6771    8.1979 O.3       1 <0>        -0.3060
     21 C17        -4.2801   -9.8884    8.7663 C.3       1 <0>         0.0215
     22 C18        -0.9479   -6.4931   10.1050 C.ar      1 <0>         0.2461
     23 C19        -0.2479   -5.2912   10.2889 C.ar      1 <0>        -0.0642
     24 C20        -0.7554   -4.1075    9.7290 C.ar      1 <0>         0.1726
     25 N3         -1.8670   -4.0969    9.0391 N.ar      1 <0>        -0.4513
     26 C21         0.9711   -5.2716   11.0401 C.1       1 <0>         0.2423
     27 N4          1.9381   -5.2560   11.6360 N.1       1 <0>        -0.3759
     28 N5         -0.4826   -7.6780   10.6396 N.pl3     1 <0>        -0.6940
     29 C22        -0.9901   -8.1427   11.8568 C.ar      1 <0>         0.2569
     30 C23        -2.0435   -7.4779   12.4699 C.ar      1 <0>        -0.2535
     31 C24        -2.5440   -7.9410   13.6761 C.ar      1 <0>         0.1910
     32 C25        -1.9916   -9.0686   14.2695 C.ar      1 <0>        -0.1016
     33 C26        -0.9421   -9.7297   13.6583 C.ar      1 <0>        -0.0171
     34 C27        -0.4442   -9.2742   12.4518 C.ar      1 <0>        -0.1247
     35 Cl1         0.8679  -10.1114   11.6829 Cl        1 <0>        -0.0509
     36 Cl2        -2.6190   -9.6484   15.7807 Cl        1 <0>        -0.0408
     37 O3         -3.5751   -7.2916   14.2786 O.3       1 <0>        -0.2942
     38 C28        -4.1727   -6.2127   13.5569 C.3       1 <0>         0.0244
     39 H1         -9.1989   -1.6844    0.8956 H         1 <0>         0.1243
     40 H2        -10.3373   -0.6974    1.8434 H         1 <0>         0.1247
     41 H3         -8.6016   -0.6787    2.2373 H         1 <0>         0.1235
     42 H4         -9.1063   -1.2878    4.5094 H         1 <0>         0.1388
     43 H5        -10.8399   -1.2861    4.1056 H         1 <0>         0.1376
     44 H6        -10.3797   -2.6768    6.1137 H         1 <0>         0.1270
     45 H7        -11.0040   -3.6648    4.7705 H         1 <0>         0.0639
     46 H8         -7.7011   -4.9964    3.8870 H         1 <0>         0.1243
     47 H9         -9.4298   -5.0280    3.4619 H         1 <0>         0.0636
     48 H10        -8.1653   -3.6023    1.8822 H         1 <0>         0.1363
     49 H11        -7.5783   -2.6111    3.2391 H         1 <0>         0.1383
     50 H12        -9.4679   -4.6029    7.0770 H         1 <0>         0.1181
     51 H13        -9.8292   -5.7177    5.7372 H         1 <0>         0.0658
     52 H14        -6.9521   -4.5575    7.9999 H         1 <0>         0.1556
     53 H15        -5.5040   -7.8849    5.6459 H         1 <0>         0.2094
     54 H16        -4.1166   -4.2274    7.6726 H         1 <0>         0.1522
     55 H17        -2.5648   -8.5591    9.5334 H         1 <0>         0.1435
     56 H18        -4.2121   -9.7808    9.8489 H         1 <0>         0.0608
     57 H19        -4.9543  -10.7099    8.5244 H         1 <0>         0.1082
     58 H20        -3.2909  -10.0982    8.3593 H         1 <0>         0.0609
     59 H21        -0.2153   -3.1832    9.8719 H         1 <0>         0.1776
     60 H22         0.1963   -8.1880   10.1707 H         1 <0>         0.4232
     61 H23        -2.4720   -6.6010   12.0076 H         1 <0>         0.1437
     62 H24        -0.5137  -10.6060   14.1221 H         1 <0>         0.1560
     63 H25        -3.4354   -5.4243   13.4055 H         1 <0>         0.0582
     64 H26        -4.5233   -6.5728   12.5896 H         1 <0>         0.0574
     65 H27        -5.0152   -5.8181   14.1249 H         1 <0>         0.1085
     66 H28       -10.3922   -2.9911    2.4937 H         1 <0>         0.4227
@<TRIPOS>BOND
     1    1    2 1
     2    1   39 1
     3    1   40 1
     4    1   41 1
     5    2    7 1
     6    2    3 1
     7    2   66 1
     8    3    4 1
     9    3   42 1
    10    3   43 1
    11    4    5 1
    12    4   44 1
    13    4   45 1
    14    5    6 1
    15    5    8 1
    16    6    7 1
    17    6   46 1
    18    6   47 1
    19    7   48 1
    20    7   49 1
    21    8    9 1
    22    8   50 1
    23    8   51 1
    24    9   13 1
    25    9   10 2
    26   10   11 1
    27   10   52 1
    28   11   12 2
    29   11   14 1
    30   12   13 1
    31   12   53 1
    32   14   19 ar
    33   14   15 ar
    34   15   16 ar
    35   15   54 1
    36   16   25 ar
    37   16   17 ar
    38   17   18 ar
    39   17   22 ar
    40   18   19 ar
    41   18   55 1
    42   19   20 1
    43   20   21 1
    44   21   56 1
    45   21   57 1
    46   21   58 1
    47   22   23 ar
    48   22   28 1
    49   23   24 ar
    50   23   26 1
    51   24   25 ar
    52   24   59 1
    53   26   27 3
    54   28   29 1
    55   28   60 1
    56   29   34 ar
    57   29   30 ar
    58   30   31 ar
    59   30   61 1
    60   31   32 ar
    61   31   37 1
    62   32   33 ar
    63   32   36 1
    64   33   34 ar
    65   33   62 1
    66   34   35 1
    67   37   38 1
    68   38   63 1
    69   38   64 1
    70   38   65 1
@<TRIPOS>MOLECULE
CHEMBL219557__1
   66    70     0     0     0
SMALL
USER_CHARGES

@<TRIPOS>ATOM
      1 C1         -9.5409   -1.8874    1.9436 C.3       1 <0>         0.0194
      2 N1         -9.5916   -3.0314    2.8637 N.3       1 <0>        -0.5435
      3 C2         -9.9721   -2.6025    4.2169 C.3       1 <0>         0.0246
      4 C3        -10.0714   -3.8279    5.1281 C.3       1 <0>        -0.0028
      5 N2         -8.7762   -4.5199    5.1612 N.4       1 <0>        -0.3890
      6 C4         -8.4214   -4.9637    3.8067 C.3       1 <0>        -0.0030
      7 C5         -8.3084   -3.7478    2.8846 C.3       1 <0>         0.0263
      8 C6         -8.8669   -5.6859    6.0502 C.3       1 <0>         0.0904
      9 C7         -7.5082   -6.3246    6.1812 C.2       1 <0>        -0.0988
     10 C8         -6.5895   -6.0198    7.1128 C.2       1 <0>        -0.1241
     11 C9         -5.4388   -6.8910    6.8473 C.2       1 <0>        -0.1469
     12 C10        -5.7855   -7.6418    5.7690 C.2       1 <0>         0.0528
     13 O1         -7.0234   -7.2934    5.3898 O.3       1 <0>        -0.1686
     14 C11        -4.1621   -6.9415    7.5999 C.ar      1 <0>        -0.0140
     15 C12        -3.4758   -5.7702    7.8657 C.ar      1 <0>        -0.0409
     16 C13        -2.2690   -5.8184    8.5776 C.ar      1 <0>         0.1230
     17 C14        -1.7728   -7.0713    9.0135 C.ar      1 <0>        -0.0654
     18 C15        -2.4864   -8.2458    8.7326 C.ar      1 <0>        -0.1815
     19 C16        -3.6619   -8.1797    8.0426 C.ar      1 <0>         0.1490
     20 O2         -4.3527   -9.3196    7.7771 O.3       1 <0>        -0.3089
     21 C17        -3.7915  -10.5442    8.2538 C.3       1 <0>         0.0211
     22 C18        -0.5547   -7.1145    9.7315 C.ar      1 <0>         0.2469
     23 C19         0.1044   -5.9005    9.9765 C.ar      1 <0>        -0.0593
     24 C20        -0.4612   -4.7040    9.5065 C.ar      1 <0>         0.1758
     25 N3         -1.5899   -4.6926    8.8450 N.ar      1 <0>        -0.4519
     26 C21         1.3409   -5.8815   10.6986 C.1       1 <0>         0.2393
     27 N4          2.3218   -5.8664   11.2714 N.1       1 <0>        -0.3706
     28 N5         -0.0319   -8.3121   10.1770 N.pl3     1 <0>        -0.6948
     29 C22        -0.4900   -8.8731   11.3731 C.ar      1 <0>         0.2554
     30 C23        -1.5513   -8.2903   12.0525 C.ar      1 <0>        -0.2538
     31 C24        -2.0027   -8.8486   13.2375 C.ar      1 <0>         0.1905
     32 C25        -1.3934   -9.9895   13.7435 C.ar      1 <0>        -0.1006
     33 C26        -0.3362  -10.5689   13.0663 C.ar      1 <0>        -0.0167
     34 C27         0.1129  -10.0182   11.8805 C.ar      1 <0>        -0.1238
     35 Cl1         1.4351  -10.7529   11.0284 Cl        1 <0>        -0.0495
     36 Cl2        -1.9595  -10.6886   15.2282 Cl        1 <0>        -0.0392
     37 O3         -3.0414   -8.2796   13.9049 O.3       1 <0>        -0.2938
     38 C28        -3.6973   -7.1809   13.2688 C.3       1 <0>         0.0249
     39 H1         -9.3214   -2.2408    0.9361 H         1 <0>         0.0844
     40 H2        -10.5030   -1.3751    1.9474 H         1 <0>         0.0843
     41 H3         -8.7606   -1.1973    2.2646 H         1 <0>         0.0398
     42 H4         -9.2180   -1.9192    4.6074 H         1 <0>         0.0612
     43 H5        -10.9372   -2.0973    4.1804 H         1 <0>         0.1255
     44 H6        -10.3397   -3.5106    6.1358 H         1 <0>         0.1389
     45 H7        -10.8352   -4.5046    4.7449 H         1 <0>         0.1406
     46 H8         -7.4665   -5.4884    3.8348 H         1 <0>         0.1335
     47 H9         -9.1937   -5.6346    3.4303 H         1 <0>         0.1395
     48 H10        -8.0598   -4.0781    1.8760 H         1 <0>         0.1239
     49 H11        -7.5269   -3.0833    3.2531 H         1 <0>         0.0605
     50 H12        -9.2149   -5.3674    7.0328 H         1 <0>         0.1581
     51 H13        -9.5689   -6.4075    5.6325 H         1 <0>         0.1472
     52 H14        -6.6795   -5.2833    7.8976 H         1 <0>         0.1661
     53 H15        -5.1696   -8.3945    5.2995 H         1 <0>         0.2203
     54 H16        -3.8676   -4.8229    7.5260 H         1 <0>         0.1514
     55 H17        -2.1077   -9.2010    9.0651 H         1 <0>         0.1453
     56 H18        -4.4406  -11.3743    7.9750 H         1 <0>         0.1097
     57 H19        -2.8061  -10.6890    7.8110 H         1 <0>         0.0624
     58 H20        -3.6996  -10.5036    9.3392 H         1 <0>         0.0619
     59 H21         0.0476   -3.7705    9.6964 H         1 <0>         0.1794
     60 H22         0.6532   -8.7643    9.6603 H         1 <0>         0.4239
     61 H23        -2.0239   -7.4029   11.6582 H         1 <0>         0.1429
     62 H24         0.1364  -11.4557   13.4621 H         1 <0>         0.1568
     63 H25        -2.9941   -6.3564   13.1517 H         1 <0>         0.0580
     64 H26        -4.0592   -7.4918   12.2888 H         1 <0>         0.0562
     65 H27        -4.5389   -6.8565   13.8808 H         1 <0>         0.1085
     66 H28        -8.0671   -3.8897    5.5050 H         1 <0>         0.4217
@<TRIPOS>BOND
     1    1    2 1
     2    1   39 1
     3    1   40 1
     4    1   41 1
     5    2    7 1
     6    2    3 1
     7    3    4 1
     8    3   42 1
     9    3   43 1
    10    4    5 1
    11    4   44 1
    12    4   45 1
    13    5    6 1
    14    5    8 1
    15    5   66 1
    16    6    7 1
    17    6   46 1
    18    6   47 1
    19    7   48 1
    20    7   49 1
    21    8    9 1
    22    8   50 1
    23    8   51 1
    24    9   13 1
    25    9   10 2
    26   10   11 1
    27   10   52 1
    28   11   12 2
    29   11   14 1
    30   12   13 1
    31   12   53 1
    32   14   19 ar
    33   14   15 ar
    34   15   16 ar
    35   15   54 1
    36   16   25 ar
    37   16   17 ar
    38   17   18 ar
    39   17   22 ar
    40   18   19 ar
    41   18   55 1
    42   19   20 1
    43   20   21 1
    44   21   56 1
    45   21   57 1
    46   21   58 1
    47   22   23 ar
    48   22   28 1
    49   23   24 ar
    50   23   26 1
    51   24   25 ar
    52   24   59 1
    53   26   27 3
    54   28   29 1
    55   28   60 1
    56   29   34 ar
    57   29   30 ar
    58   30   31 ar
    59   30   61 1
    60   31   32 ar
    61   31   37 1
    62   32   33 ar
    63   32   36 1
    64   33   34 ar
    65   33   62 1
    66   34   35 1
    67   37   38 1
    68   38   63 1
    69   38   64 1
    70   38   65 1
@<TRIPOS>MOLECULE
CHEMBL426438
   40    43     0     0     0
SMALL
USER_CHARGES

@<TRIPOS>ATOM
      1 C1         -0.2869    2.4949    0.1671 C.3       1 <0>        -0.1073
      2 C2         -0.1922    1.0002   -0.0002 C.ar      1 <0>        -0.0975
      3 C3         -0.1045    0.4500   -1.2624 C.ar      1 <0>        -0.1027
      4 C4         -0.0175   -0.9219   -1.4186 C.ar      1 <0>        -0.1184
      5 C5         -0.0172   -1.7527   -0.3117 C.ar      1 <0>        -0.1019
      6 C6         -0.1039   -1.2169    0.9571 C.ar      1 <0>        -0.0334
      7 C7         -0.1873    0.1692    1.1223 C.ar      1 <0>         0.1156
      8 N1         -0.2683    0.7080    2.3764 N.2       1 <0>        -0.4875
      9 C8         -1.4435    0.9002    2.9350 C.2       1 <0>         0.5056
     10 N2         -2.6678    0.5810    2.3311 N.pl3     1 <0>        -0.7622
     11 C9         -3.6531   -0.1798    3.0815 C.3       1 <0>         0.2959
     12 C10        -3.7865    0.1980    4.5577 C.3       1 <0>         0.3131
     13 N3         -2.7792    1.1495    5.0053 N.pl3     1 <0>        -0.4557
     14 C11        -1.6420    1.4734    4.2802 C.2       1 <0>        -0.0101
     15 C12        -0.9144    2.3193    5.0285 C.2       1 <0>         0.0640
     16 N4         -1.5972    2.5350    6.1621 N.2       1 <0>        -0.4901
     17 C13        -2.7120    1.8560    6.1428 C.2       1 <0>         0.2474
     18 C14        -3.7511    1.8543    7.2343 C.3       1 <0>        -0.0769
     19 N5         -3.5721   -1.0892    5.2495 N.pl3     1 <0>        -0.6495
     20 C15        -3.2883   -2.0351    4.3096 C.2       1 <0>         0.3648
     21 N6         -3.3103   -1.6073    3.0992 N.2       1 <0>        -0.5602
     22 C16        -3.6507   -1.3111    6.6955 C.3       1 <0>         0.0965
     23 Cl1        -0.1041   -2.2604    2.3445 Cl        1 <0>        -0.0575
     24 H1          0.7154    2.9157    0.2477 H         1 <0>         0.0762
     25 H2         -0.7936    2.9258   -0.6964 H         1 <0>         0.0688
     26 H3         -0.8510    2.7243    1.0712 H         1 <0>         0.0605
     27 H4         -0.1041    1.0919   -2.1309 H         1 <0>         0.1295
     28 H5          0.0503   -1.3467   -2.4092 H         1 <0>         0.1312
     29 H6          0.0507   -2.8228   -0.4411 H         1 <0>         0.1325
     30 H7         -4.6288   -0.0574    2.6112 H         1 <0>         0.1202
     31 H8         -4.7856    0.5843    4.7595 H         1 <0>         0.1272
     32 H9          0.0424    2.7458    4.7660 H         1 <0>         0.1843
     33 H10        -3.4711    1.1323    8.0014 H         1 <0>         0.0883
     34 H11        -3.8147    2.8484    7.6769 H         1 <0>         0.0979
     35 H12        -4.7190    1.5810    6.8141 H         1 <0>         0.0741
     36 H13        -3.0630   -3.0606    4.5625 H         1 <0>         0.1908
     37 H14        -4.6883   -1.4853    6.9805 H         1 <0>         0.0637
     38 H15        -3.0497   -2.1801    6.9629 H         1 <0>         0.0789
     39 H16        -3.2727   -0.4329    7.2189 H         1 <0>         0.0726
     40 H17        -2.8554    0.8650    1.4227 H         1 <0>         0.4114
@<TRIPOS>BOND
     1    1    2 1
     2    1   24 1
     3    1   25 1
     4    1   26 1
     5    2    7 ar
     6    2    3 ar
     7    3    4 ar
     8    3   27 1
     9    4    5 ar
    10    4   28 1
    11    5    6 ar
    12    5   29 1
    13    6    7 ar
    14    6   23 1
    15    7    8 1
    16    8    9 2
    17    9   14 1
    18    9   10 1
    19   10   11 1
    20   10   40 1
    21   11   21 1
    22   11   12 1
    23   11   30 1
    24   12   13 1
    25   12   19 1
    26   12   31 1
    27   13   17 1
    28   13   14 1
    29   14   15 2
    30   15   16 1
    31   15   32 1
    32   16   17 2
    33   17   18 1
    34   18   33 1
    35   18   34 1
    36   18   35 1
    37   19   20 1
    38   19   22 1
    39   20   21 2
    40   20   36 1
    41   22   37 1
    42   22   38 1
    43   22   39 1
@<TRIPOS>MOLECULE
CHEMBL426438__1
   41    44     0     0     0
SMALL
USER_CHARGES

@<TRIPOS>ATOM
      1 C1         -0.2872    2.4949    0.1670 C.3       1 <0>        -0.1101
      2 C2         -0.1925    1.0002   -0.0004 C.ar      1 <0>        -0.0842
      3 C3         -0.1048    0.4500   -1.2625 C.ar      1 <0>        -0.1009
      4 C4         -0.0178   -0.9219   -1.4187 C.ar      1 <0>        -0.1003
      5 C5         -0.0175   -1.7527   -0.3119 C.ar      1 <0>        -0.0998
      6 C6         -0.1041   -1.2169    0.9569 C.ar      1 <0>        -0.0235
      7 C7         -0.1875    0.1692    1.1221 C.ar      1 <0>         0.0828
      8 N1         -0.2685    0.7080    2.3763 N.2       1 <0>        -0.4335
      9 C8         -1.4437    0.9001    2.9349 C.2       1 <0>         0.4605
     10 N2         -2.6680    0.5810    2.3310 N.pl3     1 <0>        -0.7544
     11 C9         -3.6533   -0.1799    3.0815 C.3       1 <0>         0.2909
     12 C10        -3.7866    0.1979    4.5577 C.3       1 <0>         0.3040
     13 N3         -2.7793    1.1494    5.0053 N.pl3     1 <0>        -0.4094
     14 C11        -1.6421    1.4733    4.2801 C.2       1 <0>         0.0809
     15 C12        -0.9145    2.3192    5.0284 C.2       1 <0>         0.0749
     16 N4         -1.5973    2.5349    6.1620 N.pl3     1 <0>        -0.4790
     17 C13        -2.7120    1.8559    6.1427 C.cat     1 <0>         0.3432
     18 C14        -3.7511    1.8542    7.2343 C.3       1 <0>        -0.1211
     19 N5         -3.5722   -1.0893    5.2495 N.pl3     1 <0>        -0.6481
     20 C15        -3.2884   -2.0352    4.3095 C.2       1 <0>         0.3678
     21 N6         -3.3105   -1.6073    3.0991 N.2       1 <0>        -0.5399
     22 C16        -3.6508   -1.3112    6.6954 C.3       1 <0>         0.0911
     23 Cl1        -0.1042   -2.2604    2.3443 Cl        1 <0>        -0.0550
     24 H1          0.7151    2.9157    0.2475 H         1 <0>         0.0810
     25 H2         -0.7939    2.9258   -0.6965 H         1 <0>         0.0759
     26 H3         -0.8512    2.7243    1.0711 H         1 <0>         0.0556
     27 H4         -0.1045    1.0920   -2.1310 H         1 <0>         0.1370
     28 H5          0.0499   -1.3466   -2.4094 H         1 <0>         0.1390
     29 H6          0.0504   -2.8228   -0.4414 H         1 <0>         0.1397
     30 H7         -4.6290   -0.0574    2.6112 H         1 <0>         0.1418
     31 H8         -4.7857    0.5842    4.7595 H         1 <0>         0.1559
     32 H9          0.0423    2.7457    4.7659 H         1 <0>         0.2370
     33 H10        -3.4711    1.1322    8.0013 H         1 <0>         0.1272
     34 H11        -3.8147    2.8482    7.6769 H         1 <0>         0.1261
     35 H12        -4.7190    1.5809    6.8141 H         1 <0>         0.1166
     36 H13        -3.0631   -3.0607    4.5624 H         1 <0>         0.2042
     37 H14        -4.6883   -1.4854    6.9804 H         1 <0>         0.0778
     38 H15        -3.0497   -2.1803    6.9628 H         1 <0>         0.0925
     39 H16        -3.2727   -0.4330    7.2189 H         1 <0>         0.0634
     40 H17        -2.8556    0.8650    1.4227 H         1 <0>         0.4246
     41 H18        -1.3101    3.1146    6.8848 H         1 <0>         0.4679
@<TRIPOS>BOND
     1    1    2 1
     2    1   24 1
     3    1   25 1
     4    1   26 1
     5    2    7 ar
     6    2    3 ar
     7    3    4 ar
     8    3   27 1
     9    4    5 ar
    10    4   28 1
    11    5    6 ar
    12    5   29 1
    13    6    7 ar
    14    6   23 1
    15    7    8 1
    16    8    9 2
    17    9   14 1
    18    9   10 1
    19   10   11 1
    20   10   40 1
    21   11   21 1
    22   11   12 1
    23   11   30 1
    24   12   13 1
    25   12   19 1
    26   12   31 1
    27   13   17 1
    28   13   14 1
    29   14   15 2
    30   15   16 1
    31   15   32 1
    32   16   17 2
    33   16   41 1
    34   17   18 1
    35   18   33 1
    36   18   34 1
    37   18   35 1
    38   19   20 1
    39   19   22 1
    40   20   21 2
    41   20   36 1
    42   22   37 1
    43   22   38 1
    44   22   39 1
@<TRIPOS>MOLECULE
CHEMBL426438__2
   40    43     0     0     0
SMALL
USER_CHARGES

@<TRIPOS>ATOM
      1 C1          0.1996    1.4798    0.1987 C.3       1 <0>        -0.1049
      2 C2          0.3364   -0.0203    0.2454 C.ar      1 <0>        -0.0869
      3 C3          0.3969   -0.7459   -0.9265 C.ar      1 <0>        -0.0992
      4 C4          0.5225   -2.1230   -0.8863 C.ar      1 <0>        -0.1182
      5 C5          0.5889   -2.7836    0.3281 C.ar      1 <0>        -0.1007
      6 C6          0.5301   -2.0713    1.5086 C.ar      1 <0>        -0.0585
      7 C7          0.4081   -0.6786    1.4751 C.ar      1 <0>         0.1191
      8 N1          0.3544    0.0347    2.6405 N.2       1 <0>        -0.5053
      9 C8         -0.8058    0.2746    3.2119 C.2       1 <0>         0.5123
     10 N2         -2.0329   -0.1841    2.6722 N.pl3     1 <0>        -0.7496
     11 C9         -3.1488    0.6733    2.9962 C.3       1 <0>         0.2832
     12 C10        -3.3532    0.6506    4.5445 C.3       1 <0>         0.2982
     13 N3         -2.1647    1.2450    5.1013 N.pl3     1 <0>        -0.4494
     14 C11        -0.9316    1.0378    4.4694 C.2       1 <0>        -0.0332
     15 C12        -0.0043    1.6582    5.2263 C.2       1 <0>         0.0936
     16 N4         -0.6380    2.2323    6.2575 N.2       1 <0>        -0.4952
     17 C13        -1.9263    1.9982    6.1733 C.2       1 <0>         0.2652
     18 C14        -2.9684    2.4889    7.1449 C.3       1 <0>        -0.0978
     19 N5         -4.6291    1.3605    4.5745 N.pl3     1 <0>        -0.6655
     20 C15        -5.3085    0.8314    3.4806 C.2       1 <0>         0.3764
     21 N6         -4.4952    0.4045    2.5449 N.2       1 <0>        -0.5382
     22 C16        -5.0830    2.3801    5.5235 C.3       1 <0>         0.0986
     23 Cl1         0.6129   -2.9013    3.0311 Cl        1 <0>        -0.0618
     24 H1          1.1901    1.9344    0.1777 H         1 <0>         0.0757
     25 H2         -0.3510    1.7667   -0.6971 H         1 <0>         0.0676
     26 H3         -0.3391    1.8231    1.0819 H         1 <0>         0.0604
     27 H4          0.3457   -0.2374   -1.8780 H         1 <0>         0.1306
     28 H5          0.5686   -2.6855   -1.8071 H         1 <0>         0.1329
     29 H6          0.6865   -3.8589    0.3520 H         1 <0>         0.1344
     30 H7         -2.8908    1.6953    2.7186 H         1 <0>         0.0796
     31 H8         -3.4672   -0.3732    4.9006 H         1 <0>         0.1101
     32 H9          1.0583    1.6869    5.0358 H         1 <0>         0.1908
     33 H10        -3.5891    1.6521    7.4654 H         1 <0>         0.0827
     34 H11        -2.4774    2.9301    8.0123 H         1 <0>         0.0999
     35 H12        -3.5926    3.2394    6.6599 H         1 <0>         0.0985
     36 H13        -6.3849    0.7781    3.4107 H         1 <0>         0.2104
     37 H14        -4.4674    3.2735    5.4191 H         1 <0>         0.0666
     38 H15        -6.1239    2.6300    5.3180 H         1 <0>         0.0873
     39 H16        -4.9956    1.9953    6.5396 H         1 <0>         0.0746
     40 H17        -2.1150   -0.9910    2.1403 H         1 <0>         0.4157
@<TRIPOS>BOND
     1    1    2 1
     2    1   24 1
     3    1   25 1
     4    1   26 1
     5    2    7 ar
     6    2    3 ar
     7    3    4 ar
     8    3   27 1
     9    4    5 ar
    10    4   28 1
    11    5    6 ar
    12    5   29 1
    13    6    7 ar
    14    6   23 1
    15    7    8 1
    16    8    9 2
    17    9   14 1
    18    9   10 1
    19   10   11 1
    20   10   40 1
    21   11   21 1
    22   11   12 1
    23   11   30 1
    24   12   13 1
    25   12   19 1
    26   12   31 1
    27   13   17 1
    28   13   14 1
    29   14   15 2
    30   15   16 1
    31   15   32 1
    32   16   17 2
    33   17   18 1
    34   18   33 1
    35   18   34 1
    36   18   35 1
    37   19   20 1
    38   19   22 1
    39   20   21 2
    40   20   36 1
    41   22   37 1
    42   22   38 1
    43   22   39 1
@<TRIPOS>MOLECULE
CHEMBL426438__3
   41    44     0     0     0
SMALL
USER_CHARGES

@<TRIPOS>ATOM
      1 C1          0.1997    1.4798    0.1988 C.3       1 <0>        -0.1079
      2 C2          0.3365   -0.0203    0.2455 C.ar      1 <0>        -0.0737
      3 C3          0.3970   -0.7459   -0.9265 C.ar      1 <0>        -0.0977
      4 C4          0.5226   -2.1230   -0.8862 C.ar      1 <0>        -0.0994
      5 C5          0.5890   -2.7836    0.3282 C.ar      1 <0>        -0.0985
      6 C6          0.5302   -2.0713    1.5087 C.ar      1 <0>        -0.0468
      7 C7          0.4081   -0.6786    1.4751 C.ar      1 <0>         0.0843
      8 N1          0.3545    0.0347    2.6405 N.2       1 <0>        -0.4510
      9 C8         -0.8058    0.2746    3.2119 C.2       1 <0>         0.4684
     10 N2         -2.0329   -0.1841    2.6723 N.pl3     1 <0>        -0.7411
     11 C9         -3.1487    0.6732    2.9962 C.3       1 <0>         0.2864
     12 C10        -3.3531    0.6506    4.5445 C.3       1 <0>         0.2827
     13 N3         -2.1646    1.2450    5.1014 N.pl3     1 <0>        -0.4018
     14 C11        -0.9316    1.0378    4.4694 C.2       1 <0>         0.0646
     15 C12        -0.0043    1.6583    5.2264 C.2       1 <0>         0.1024
     16 N4         -0.6380    2.2324    6.2575 N.pl3     1 <0>        -0.4864
     17 C13        -1.9262    1.9982    6.1733 C.cat     1 <0>         0.3582
     18 C14        -2.9684    2.4889    7.1450 C.3       1 <0>        -0.1405
     19 N5         -4.6291    1.3605    4.5745 N.pl3     1 <0>        -0.6672
     20 C15        -5.3085    0.8313    3.4806 C.2       1 <0>         0.3887
     21 N6         -4.4951    0.4045    2.5449 N.2       1 <0>        -0.5206
     22 C16        -5.0830    2.3800    5.5235 C.3       1 <0>         0.0899
     23 Cl1         0.6130   -2.9013    3.0312 Cl        1 <0>        -0.0577
     24 H1          1.1901    1.9344    0.1777 H         1 <0>         0.0806
     25 H2         -0.3510    1.7667   -0.6971 H         1 <0>         0.0750
     26 H3         -0.3390    1.8231    1.0819 H         1 <0>         0.0551
     27 H4          0.3458   -0.2374   -1.8779 H         1 <0>         0.1381
     28 H5          0.5687   -2.6855   -1.8070 H         1 <0>         0.1407
     29 H6          0.6867   -3.8589    0.3520 H         1 <0>         0.1419
     30 H7         -2.8908    1.6953    2.7186 H         1 <0>         0.0887
     31 H8         -3.4671   -0.3732    4.9007 H         1 <0>         0.1439
     32 H9          1.0584    1.6870    5.0358 H         1 <0>         0.2431
     33 H10        -3.5891    1.6521    7.4654 H         1 <0>         0.1257
     34 H11        -2.4774    2.9301    8.0123 H         1 <0>         0.1238
     35 H12        -3.5926    3.2394    6.6599 H         1 <0>         0.1381
     36 H13        -6.3849    0.7780    3.4107 H         1 <0>         0.2228
     37 H14        -4.4674    3.2735    5.4191 H         1 <0>         0.0663
     38 H15        -6.1239    2.6300    5.3180 H         1 <0>         0.1039
     39 H16        -4.9956    1.9953    6.5396 H         1 <0>         0.0776
     40 H17        -2.1150   -0.9910    2.1403 H         1 <0>         0.4291
     41 H18        -0.2098    2.7502    6.9571 H         1 <0>         0.4701
@<TRIPOS>BOND
     1    1    2 1
     2    1   24 1
     3    1   25 1
     4    1   26 1
     5    2    7 ar
     6    2    3 ar
     7    3    4 ar
     8    3   27 1
     9    4    5 ar
    10    4   28 1
    11    5    6 ar
    12    5   29 1
    13    6    7 ar
    14    6   23 1
    15    7    8 1
    16    8    9 2
    17    9   14 1
    18    9   10 1
    19   10   11 1
    20   10   40 1
    21   11   21 1
    22   11   12 1
    23   11   30 1
    24   12   13 1
    25   12   19 1
    26   12   31 1
    27   13   17 1
    28   13   14 1
    29   14   15 2
    30   15   16 1
    31   15   32 1
    32   16   17 2
    33   16   41 1
    34   17   18 1
    35   18   33 1
    36   18   34 1
    37   18   35 1
    38   19   20 1
    39   19   22 1
    40   20   21 2
    41   20   36 1
    42   22   37 1
    43   22   38 1
    44   22   39 1
@<TRIPOS>MOLECULE
CHEMBL426438__4
   40    43     0     0     0
SMALL
USER_CHARGES

@<TRIPOS>ATOM
      1 C1          0.1308    1.7047    0.0488 C.3       1 <0>        -0.1067
      2 C2          0.2395    0.2020    0.0782 C.ar      1 <0>        -0.0968
      3 C3          0.2968   -0.5103   -1.1021 C.ar      1 <0>        -0.1000
      4 C4          0.3966   -1.8900   -1.0777 C.ar      1 <0>        -0.1180
      5 C5          0.4402   -2.5663    0.1290 C.ar      1 <0>        -0.1007
      6 C6          0.3843   -1.8675    1.3176 C.ar      1 <0>        -0.0476
      7 C7          0.2883   -0.4725    1.3002 C.ar      1 <0>         0.1184
      8 N1          0.2376    0.2274    2.4738 N.2       1 <0>        -0.5055
      9 C8         -0.9230    0.4819    3.0382 C.2       1 <0>         0.5122
     10 N2         -2.1536    0.0527    2.4825 N.pl3     1 <0>        -0.7492
     11 C9         -3.1727   -0.1815    3.4783 C.3       1 <0>         0.2836
     12 C10        -3.4961    1.1761    4.1797 C.3       1 <0>         0.2982
     13 N3         -2.2878    1.5553    4.8667 N.pl3     1 <0>        -0.4491
     14 C11        -1.0456    1.2319    4.3040 C.2       1 <0>        -0.0338
     15 C12        -0.1070    1.7331    5.1319 C.2       1 <0>         0.0942
     16 N4         -0.7390    2.3065    6.1645 N.2       1 <0>        -0.4954
     17 C13        -2.0381    2.2013    6.0040 C.2       1 <0>         0.2644
     18 C14        -3.0806    2.7138    6.9641 C.3       1 <0>        -0.0919
     19 N5         -4.6698    0.7266    4.9235 N.pl3     1 <0>        -0.6661
     20 C15        -5.3254   -0.0939    4.0096 C.2       1 <0>         0.3757
     21 N6         -4.5038   -0.6317    3.1407 N.2       1 <0>        -0.5375
     22 C16        -5.0614    1.0577    6.2959 C.3       1 <0>         0.0987
     23 Cl1         0.4385   -2.7174    2.8304 Cl        1 <0>        -0.0613
     24 H1          1.1296    2.1412    0.0418 H         1 <0>         0.0769
     25 H2         -0.4066    2.0127   -0.8481 H         1 <0>         0.0684
     26 H3         -0.4091    2.0473    0.9316 H         1 <0>         0.0606
     27 H4          0.2633    0.0106   -2.0475 H         1 <0>         0.1308
     28 H5          0.4404   -2.4420   -2.0049 H         1 <0>         0.1328
     29 H6          0.5178   -3.6435    0.1404 H         1 <0>         0.1340
     30 H7         -2.7662   -0.8495    4.2377 H         1 <0>         0.0800
     31 H8         -3.7665    1.9327    3.4431 H         1 <0>         0.1100
     32 H9          0.9622    1.6813    4.9886 H         1 <0>         0.1909
     33 H10        -3.3787    1.9115    7.6390 H         1 <0>         0.0943
     34 H11        -2.6671    3.5402    7.5422 H         1 <0>         0.0988
     35 H12        -3.9500    3.0604    6.4054 H         1 <0>         0.0842
     36 H13        -6.3912   -0.2682    4.0158 H         1 <0>         0.2103
     37 H14        -5.2368    2.1306    6.3749 H         1 <0>         0.0702
     38 H15        -5.9742    0.5204    6.5529 H         1 <0>         0.0870
     39 H16        -4.2644    0.7684    6.9809 H         1 <0>         0.0694
     40 H17        -2.2966   -0.0713    1.5312 H         1 <0>         0.4156
@<TRIPOS>BOND
     1    1    2 1
     2    1   24 1
     3    1   25 1
     4    1   26 1
     5    2    7 ar
     6    2    3 ar
     7    3    4 ar
     8    3   27 1
     9    4    5 ar
    10    4   28 1
    11    5    6 ar
    12    5   29 1
    13    6    7 ar
    14    6   23 1
    15    7    8 1
    16    8    9 2
    17    9   14 1
    18    9   10 1
    19   10   11 1
    20   10   40 1
    21   11   21 1
    22   11   12 1
    23   11   30 1
    24   12   13 1
    25   12   19 1
    26   12   31 1
    27   13   17 1
    28   13   14 1
    29   14   15 2
    30   15   16 1
    31   15   32 1
    32   16   17 2
    33   17   18 1
    34   18   33 1
    35   18   34 1
    36   18   35 1
    37   19   20 1
    38   19   22 1
    39   20   21 2
    40   20   36 1
    41   22   37 1
    42   22   38 1
    43   22   39 1
@<TRIPOS>MOLECULE
CHEMBL426438__5
   41    44     0     0     0
SMALL
USER_CHARGES

@<TRIPOS>ATOM
      1 C1          0.1347    1.7047    0.0510 C.3       1 <0>        -0.1098
      2 C2          0.2434    0.2019    0.0806 C.ar      1 <0>        -0.0831
      3 C3          0.3012   -0.5106   -1.0995 C.ar      1 <0>        -0.0985
      4 C4          0.4010   -1.8902   -1.0749 C.ar      1 <0>        -0.0992
      5 C5          0.4441   -2.5664    0.1319 C.ar      1 <0>        -0.0988
      6 C6          0.3877   -1.8674    1.3204 C.ar      1 <0>        -0.0362
      7 C7          0.2917   -0.4724    1.3027 C.ar      1 <0>         0.0836
      8 N1          0.2406    0.2277    2.4762 N.2       1 <0>        -0.4512
      9 C8         -0.9202    0.4823    3.0401 C.2       1 <0>         0.4684
     10 N2         -2.1506    0.0530    2.4841 N.pl3     1 <0>        -0.7406
     11 C9         -3.1700   -0.1810    3.4795 C.3       1 <0>         0.2863
     12 C10        -3.4938    1.1766    4.1806 C.3       1 <0>         0.2829
     13 N3         -2.2856    1.5560    4.8680 N.pl3     1 <0>        -0.4014
     14 C11        -1.0433    1.2324    4.3057 C.2       1 <0>         0.0640
     15 C12        -0.1050    1.7338    5.1340 C.2       1 <0>         0.1033
     16 N4         -0.7374    2.3073    6.1662 N.pl3     1 <0>        -0.4870
     17 C13        -2.0364    2.2021    6.0053 C.cat     1 <0>         0.3579
     18 C14        -3.0792    2.7148    6.9649 C.3       1 <0>        -0.1360
     19 N5         -4.6677    0.7273    4.9240 N.pl3     1 <0>        -0.6680
     20 C15        -5.3230   -0.0934    4.0100 C.2       1 <0>         0.3880
     21 N6         -4.5011   -0.6313    3.1414 N.2       1 <0>        -0.5196
     22 C16        -5.0598    1.0586    6.2962 C.3       1 <0>         0.0914
     23 Cl1         0.4414   -2.7170    2.8333 Cl        1 <0>        -0.0577
     24 H1          1.1335    2.1411    0.0442 H         1 <0>         0.0818
     25 H2         -0.4024    2.0125   -0.8462 H         1 <0>         0.0757
     26 H3         -0.4055    2.0473    0.9335 H         1 <0>         0.0558
     27 H4          0.2680    0.0102   -2.0451 H         1 <0>         0.1384
     28 H5          0.4451   -2.4423   -2.0021 H         1 <0>         0.1407
     29 H6          0.5217   -3.6435    0.1435 H         1 <0>         0.1414
     30 H7         -2.7639   -0.8489    4.2392 H         1 <0>         0.0889
     31 H8         -3.7638    1.9331    3.4438 H         1 <0>         0.1439
     32 H9          0.9643    1.6820    4.9910 H         1 <0>         0.2432
     33 H10        -3.3776    1.9125    7.6398 H         1 <0>         0.1341
     34 H11        -2.6660    3.5412    7.5430 H         1 <0>         0.1252
     35 H12        -3.9484    3.0613    6.4058 H         1 <0>         0.1258
     36 H13        -6.3888   -0.2676    4.0158 H         1 <0>         0.2227
     37 H14        -5.2352    2.1315    6.3749 H         1 <0>         0.0750
     38 H15        -5.9727    0.5213    6.5530 H         1 <0>         0.1033
     39 H16        -4.2631    0.7694    6.9815 H         1 <0>         0.0665
     40 H17        -2.2933   -0.0712    1.5327 H         1 <0>         0.4291
     41 H18        -0.3014    2.7429    6.9152 H         1 <0>         0.4702
@<TRIPOS>BOND
     1    1    2 1
     2    1   24 1
     3    1   25 1
     4    1   26 1
     5    2    7 ar
     6    2    3 ar
     7    3    4 ar
     8    3   27 1
     9    4    5 ar
    10    4   28 1
    11    5    6 ar
    12    5   29 1
    13    6    7 ar
    14    6   23 1
    15    7    8 1
    16    8    9 2
    17    9   14 1
    18    9   10 1
    19   10   11 1
    20   10   40 1
    21   11   21 1
    22   11   12 1
    23   11   30 1
    24   12   13 1
    25   12   19 1
    26   12   31 1
    27   13   17 1
    28   13   14 1
    29   14   15 2
    30   15   16 1
    31   15   32 1
    32   16   17 2
    33   16   41 1
    34   17   18 1
    35   18   33 1
    36   18   34 1
    37   18   35 1
    38   19   20 1
    39   19   22 1
    40   20   21 2
    41   20   36 1
    42   22   37 1
    43   22   38 1
    44   22   39 1
@<TRIPOS>MOLECULE
CHEMBL426438__6
   40    43     0     0     0
SMALL
USER_CHARGES

@<TRIPOS>ATOM
      1 C1          0.2366    2.3172   -0.3036 C.3       1 <0>        -0.0990
      2 C2          0.2231    0.8233   -0.5018 C.ar      1 <0>        -0.0742
      3 C3          0.1643    0.2953   -1.7751 C.ar      1 <0>        -0.0992
      4 C4          0.1518   -1.0758   -1.9595 C.ar      1 <0>        -0.1189
      5 C5          0.1985   -1.9280   -0.8701 C.ar      1 <0>        -0.1025
      6 C6          0.2580   -1.4146    0.4095 C.ar      1 <0>        -0.0589
      7 C7          0.2758   -0.0297    0.6028 C.ar      1 <0>         0.1182
      8 N1          0.3399    0.4867    1.8673 N.2       1 <0>        -0.4887
      9 C8         -0.7671    0.7379    2.5320 C.2       1 <0>         0.5063
     10 N2         -2.0575    0.5060    2.0355 N.pl3     1 <0>        -0.7624
     11 C9         -3.0549    1.5592    2.1299 C.3       1 <0>         0.2961
     12 C10        -3.0425    2.3574    3.4346 C.3       1 <0>         0.3133
     13 N3         -1.9172    2.0347    4.3006 N.pl3     1 <0>        -0.4549
     14 C11        -0.8096    1.2938    3.8982 C.2       1 <0>        -0.0158
     15 C12         0.0475    1.2435    4.9314 C.2       1 <0>         0.0700
     16 N4         -0.5250    1.8935    5.9549 N.2       1 <0>        -0.4912
     17 C13        -1.6984    2.3642    5.5817 C.2       1 <0>         0.2479
     18 C14        -2.6497    3.1360    6.4594 C.3       1 <0>        -0.0822
     19 N5         -2.9046    3.7520    2.9683 N.pl3     1 <0>        -0.6498
     20 C15        -2.7840    3.7363    1.6103 C.2       1 <0>         0.3642
     21 N6         -2.8525    2.5678    1.0825 N.2       1 <0>        -0.5670
     22 C16        -2.8986    4.9455    3.8179 C.3       1 <0>         0.0994
     23 Cl1         0.3160   -2.4849    1.7750 Cl        1 <0>        -0.0634
     24 H1          1.2662    2.6748   -0.3068 H         1 <0>         0.0668
     25 H2         -0.3169    2.7959   -1.1115 H         1 <0>         0.0678
     26 H3         -0.2299    2.5613    0.6508 H         1 <0>         0.0632
     27 H4          0.1276    0.9541   -2.6301 H         1 <0>         0.1293
     28 H5          0.1049   -1.4831   -2.9587 H         1 <0>         0.1316
     29 H6          0.1881   -2.9973   -1.0216 H         1 <0>         0.1333
     30 H7         -4.0457    1.1208    2.0105 H         1 <0>         0.1210
     31 H8         -3.9817    2.2193    3.9703 H         1 <0>         0.1281
     32 H9          1.0171    0.7678    4.9367 H         1 <0>         0.1847
     33 H10        -3.2409    2.4400    7.0545 H         1 <0>         0.0888
     34 H11        -2.0831    3.7903    7.1219 H         1 <0>         0.0973
     35 H12        -3.3131    3.7360    5.8365 H         1 <0>         0.0761
     36 H13        -2.6423    4.6336    1.0261 H         1 <0>         0.1945
     37 H14        -1.8885    5.1237    4.1869 H         1 <0>         0.0568
     38 H15        -3.2304    5.8064    3.2374 H         1 <0>         0.0846
     39 H16        -3.5722    4.7945    4.6614 H         1 <0>         0.0767
     40 H17        -2.2821   -0.3476    1.6332 H         1 <0>         0.4119
@<TRIPOS>BOND
     1    1    2 1
     2    1   24 1
     3    1   25 1
     4    1   26 1
     5    2    7 ar
     6    2    3 ar
     7    3    4 ar
     8    3   27 1
     9    4    5 ar
    10    4   28 1
    11    5    6 ar
    12    5   29 1
    13    6    7 ar
    14    6   23 1
    15    7    8 1
    16    8    9 2
    17    9   14 1
    18    9   10 1
    19   10   11 1
    20   10   40 1
    21   11   21 1
    22   11   12 1
    23   11   30 1
    24   12   13 1
    25   12   19 1
    26   12   31 1
    27   13   17 1
    28   13   14 1
    29   14   15 2
    30   15   16 1
    31   15   32 1
    32   16   17 2
    33   17   18 1
    34   18   33 1
    35   18   34 1
    36   18   35 1
    37   19   20 1
    38   19   22 1
    39   20   21 2
    40   20   36 1
    41   22   37 1
    42   22   38 1
    43   22   39 1
@<TRIPOS>MOLECULE
CHEMBL426438__7
   41    44     0     0     0
SMALL
USER_CHARGES

@<TRIPOS>ATOM
      1 C1          0.2367    2.3173   -0.3035 C.3       1 <0>        -0.1020
      2 C2          0.2232    0.8235   -0.5017 C.ar      1 <0>        -0.0628
      3 C3          0.1645    0.2955   -1.7751 C.ar      1 <0>        -0.0975
      4 C4          0.1520   -1.0756   -1.9596 C.ar      1 <0>        -0.1008
      5 C5          0.1987   -1.9279   -0.8701 C.ar      1 <0>        -0.1000
      6 C6          0.2582   -1.4144    0.4094 C.ar      1 <0>        -0.0472
      7 C7          0.2760   -0.0296    0.6028 C.ar      1 <0>         0.0852
      8 N1          0.3400    0.4868    1.8673 N.2       1 <0>        -0.4345
      9 C8         -0.7669    0.7379    2.5320 C.2       1 <0>         0.4613
     10 N2         -2.0573    0.5061    2.0355 N.pl3     1 <0>        -0.7548
     11 C9         -3.0547    1.5592    2.1299 C.3       1 <0>         0.2914
     12 C10        -3.0424    2.3574    3.4346 C.3       1 <0>         0.3040
     13 N3         -1.9171    2.0347    4.3006 N.pl3     1 <0>        -0.4095
     14 C11        -0.8094    1.2938    3.8982 C.2       1 <0>         0.0748
     15 C12         0.0476    1.2436    4.9314 C.2       1 <0>         0.0831
     16 N4         -0.5249    1.8935    5.9550 N.pl3     1 <0>        -0.4854
     17 C13        -1.6983    2.3641    5.5817 C.cat     1 <0>         0.3481
     18 C14        -2.6496    3.1360    6.4594 C.3       1 <0>        -0.1257
     19 N5         -2.9045    3.7521    2.9684 N.pl3     1 <0>        -0.6484
     20 C15        -2.7839    3.7364    1.6103 C.2       1 <0>         0.3675
     21 N6         -2.8524    2.5679    1.0825 N.2       1 <0>        -0.5461
     22 C16        -2.8985    4.9456    3.8180 C.3       1 <0>         0.0899
     23 Cl1         0.3161   -2.4848    1.7750 Cl        1 <0>        -0.0598
     24 H1          1.2664    2.6750   -0.3067 H         1 <0>         0.0724
     25 H2         -0.3167    2.7961   -1.1114 H         1 <0>         0.0748
     26 H3         -0.2297    2.5614    0.6509 H         1 <0>         0.0569
     27 H4          0.1277    0.9543   -2.6301 H         1 <0>         0.1366
     28 H5          0.1052   -1.4829   -2.9587 H         1 <0>         0.1393
     29 H6          0.1883   -2.9971   -1.0217 H         1 <0>         0.1408
     30 H7         -4.0455    1.1208    2.0105 H         1 <0>         0.1424
     31 H8         -3.9816    2.2193    3.9703 H         1 <0>         0.1568
     32 H9          1.0174    0.7684    4.9366 H         1 <0>         0.2371
     33 H10        -3.2408    2.4399    7.0545 H         1 <0>         0.1298
     34 H11        -2.0831    3.7903    7.1220 H         1 <0>         0.1258
     35 H12        -3.3131    3.7359    5.8365 H         1 <0>         0.1154
     36 H13        -2.6422    4.6337    1.0262 H         1 <0>         0.2076
     37 H14        -1.8885    5.1237    4.1870 H         1 <0>         0.0596
     38 H15        -3.2303    5.8064    3.2375 H         1 <0>         0.1006
     39 H16        -3.5722    4.7945    4.6614 H         1 <0>         0.0808
     40 H17        -2.2820   -0.3475    1.6331 H         1 <0>         0.4249
     41 H18        -0.1317    2.0063    6.8345 H         1 <0>         0.4678
@<TRIPOS>BOND
     1    1    2 1
     2    1   24 1
     3    1   25 1
     4    1   26 1
     5    2    7 ar
     6    2    3 ar
     7    3    4 ar
     8    3   27 1
     9    4    5 ar
    10    4   28 1
    11    5    6 ar
    12    5   29 1
    13    6    7 ar
    14    6   23 1
    15    7    8 1
    16    8    9 2
    17    9   14 1
    18    9   10 1
    19   10   11 1
    20   10   40 1
    21   11   21 1
    22   11   12 1
    23   11   30 1
    24   12   13 1
    25   12   19 1
    26   12   31 1
    27   13   17 1
    28   13   14 1
    29   14   15 2
    30   15   16 1
    31   15   32 1
    32   16   17 2
    33   16   41 1
    34   17   18 1
    35   18   33 1
    36   18   34 1
    37   18   35 1
    38   19   20 1
    39   19   22 1
    40   20   21 2
    41   20   36 1
    42   22   37 1
    43   22   38 1
    44   22   39 1
@<TRIPOS>MOLECULE
CHEMBL218632
   55    58     0     0     0
SMALL
USER_CHARGES

@<TRIPOS>ATOM
      1 C1         -0.0741    1.4770   -0.0375 C.3       1 <0>        -0.1210
      2 C2         -0.0053   -0.0283   -0.0157 C.ar      1 <0>        -0.0427
      3 C3          0.0000   -0.7350   -1.2043 C.ar      1 <0>        -0.1161
      4 C4          0.0628   -2.1131   -1.1923 C.ar      1 <0>        -0.0763
      5 C5          0.1212   -2.7981    0.0230 C.ar      1 <0>        -0.1357
      6 C6          0.1157   -2.0840    1.2213 C.ar      1 <0>        -0.0465
      7 C7          0.0581   -0.7003    1.1976 C.ar      1 <0>         0.0845
      8 O1          0.0581   -0.0003    2.3625 O.3       1 <0>        -0.2016
      9 C8          1.2443    0.4638    2.8260 C.ar      1 <0>         0.3561
     10 C9          1.3043    1.0945    4.0755 C.ar      1 <0>        -0.1264
     11 C10         2.5363    1.5649    4.5344 C.ar      1 <0>        -0.0124
     12 C11         3.6500    1.3865    3.7302 C.ar      1 <0>        -0.2093
     13 C12         3.5115    0.7543    2.5090 C.ar      1 <0>         0.1585
     14 N1          2.3376    0.3136    2.0984 N.ar      1 <0>        -0.5326
     15 C13         0.0817    1.2598    4.8957 C.ar      1 <0>         0.2672
     16 C14         0.1420    1.8946    6.1402 C.ar      1 <0>        -0.2855
     17 C15        -1.0253    2.0263    6.8697 C.ar      1 <0>         0.1957
     18 N2         -2.1570    1.5513    6.3727 N.ar      1 <0>        -0.5712
     19 C16        -2.1853    0.9539    5.1903 C.ar      1 <0>         0.5680
     20 N3         -1.0926    0.8112    4.4568 N.ar      1 <0>        -0.5441
     21 N4         -3.3893    0.4711    4.7075 N.pl3     1 <0>        -0.7024
     22 C17        -4.6110    0.6236    5.5016 C.3       1 <0>         0.1068
     23 C18         0.1880   -4.2747    0.0398 C.2       1 <0>         0.5636
     24 O2          0.2387   -4.8689    1.0991 O.2       1 <0>        -0.5074
     25 N5          0.1927   -4.9623   -1.1194 N.am      1 <0>        -0.6667
     26 C19         0.1329   -6.3594   -1.1039 C.ar      1 <0>         0.1501
     27 C20         0.6651   -7.0906   -2.1584 C.ar      1 <0>        -0.1178
     28 C21         0.6048   -8.4700   -2.1398 C.ar      1 <0>        -0.0959
     29 C22         0.0150   -9.1236   -1.0731 C.ar      1 <0>        -0.0913
     30 C23        -0.5161   -8.3988   -0.0223 C.ar      1 <0>        -0.1605
     31 C24        -0.4535   -7.0190   -0.0318 C.ar      1 <0>        -0.0822
     32 C25        -1.1583   -9.1152    1.1376 C.3       1 <0>         0.5091
     33 F1         -1.0962  -10.4965    0.9247 F         1 <0>        -0.1761
     34 F2         -0.4789   -8.7943    2.3178 F         1 <0>        -0.1726
     35 F3         -2.4957   -8.7198    1.2472 F         1 <0>        -0.1757
     36 H1          0.9355    1.8864   -0.0706 H         1 <0>         0.0773
     37 H2         -0.6274    1.8027   -0.9183 H         1 <0>         0.0750
     38 H3         -0.5802    1.8306    0.8608 H         1 <0>         0.0731
     39 H4         -0.0454   -0.2064   -2.1450 H         1 <0>         0.1384
     40 H5          0.0664   -2.6619   -2.1224 H         1 <0>         0.1304
     41 H6          0.1603   -2.6082    2.1645 H         1 <0>         0.1418
     42 H7          2.6188    2.0561    5.4927 H         1 <0>         0.1507
     43 H8          4.6181    1.7386    4.0546 H         1 <0>         0.1468
     44 H9          4.3796    0.6155    1.8817 H         1 <0>         0.1651
     45 H10         1.0784    2.2730    6.5228 H         1 <0>         0.1441
     46 H11        -1.0140    2.5111    7.8347 H         1 <0>         0.1694
     47 H12        -3.4242    0.0317    3.8435 H         1 <0>         0.4154
     48 H13        -4.4882    0.1159    6.4583 H         1 <0>         0.0592
     49 H14        -4.8022    1.6827    5.6742 H         1 <0>         0.0590
     50 H15        -5.4514    0.1857    4.9630 H         1 <0>         0.0756
     51 H16         0.2376   -4.4881   -1.9644 H         1 <0>         0.4147
     52 H17         1.1251   -6.5808   -2.9919 H         1 <0>         0.1372
     53 H18         1.0183   -9.0391   -2.9593 H         1 <0>         0.1416
     54 H19        -0.0312  -10.2026   -1.0612 H         1 <0>         0.1411
     55 H20        -0.8642   -6.4535    0.7916 H         1 <0>         0.1545
@<TRIPOS>BOND
     1    1    2 1
     2    1   36 1
     3    1   37 1
     4    1   38 1
     5    2    7 ar
     6    2    3 ar
     7    3    4 ar
     8    3   39 1
     9    4    5 ar
    10    4   40 1
    11    5    6 ar
    12    5   23 1
    13    6    7 ar
    14    6   41 1
    15    7    8 1
    16    8    9 1
    17    9   14 ar
    18    9   10 ar
    19   10   11 ar
    20   10   15 1
    21   11   12 ar
    22   11   42 1
    23   12   13 ar
    24   12   43 1
    25   13   14 ar
    26   13   44 1
    27   15   20 ar
    28   15   16 ar
    29   16   17 ar
    30   16   45 1
    31   17   18 ar
    32   17   46 1
    33   18   19 ar
    34   19   20 ar
    35   19   21 1
    36   21   22 1
    37   21   47 1
    38   22   48 1
    39   22   49 1
    40   22   50 1
    41   23   24 2
    42   23   25 am
    43   25   26 1
    44   25   51 1
    45   26   31 ar
    46   26   27 ar
    47   27   28 ar
    48   27   52 1
    49   28   29 ar
    50   28   53 1
    51   29   30 ar
    52   29   54 1
    53   30   31 ar
    54   30   32 1
    55   31   55 1
    56   32   33 1
    57   32   34 1
    58   32   35 1
@<TRIPOS>MOLECULE
CHEMBL56569
   54    57     0     0     0
SMALL
USER_CHARGES

@<TRIPOS>ATOM
      1 C1          0.0361    0.2167   -0.8788 C.3       1 <0>         0.0814
      2 N1          0.4461   -0.9551   -0.1011 N.pl3     1 <0>        -1.1201
      3 S1          0.8925   -0.7819    1.4842 S.o2      1 <0>         2.7003
      4 O1          1.2044   -2.0830    1.9628 O.2       1 <0>        -0.9573
      5 O2          1.8243    0.2900    1.5290 O.2       1 <0>        -0.9536
      6 C2         -0.5330   -0.2473    2.3713 C.ar      1 <0>        -0.6983
      7 C3         -0.7968    1.1058    2.5057 C.ar      1 <0>         0.0100
      8 C4         -1.9090    1.5402    3.1975 C.ar      1 <0>        -0.1538
      9 C5         -2.7791    0.6183    3.7693 C.ar      1 <0>         0.1954
     10 C6         -2.5088   -0.7500    3.6312 C.ar      1 <0>        -0.1118
     11 C7         -1.3880   -1.1775    2.9265 C.ar      1 <0>         0.0339
     12 C8         -3.5974   -1.4631    4.3354 C.2       1 <0>        -0.2134
     13 C9         -3.7580   -2.8289    4.4701 C.2       1 <0>         0.0915
     14 C10        -4.7700   -3.3406    5.3083 C.2       1 <0>        -0.0208
     15 C11        -5.4934   -4.5076    5.1039 C.2       1 <0>        -0.0819
     16 C12        -6.3801   -4.6266    6.1682 C.2       1 <0>        -0.1688
     17 C13        -6.1975   -3.5588    6.9932 C.2       1 <0>         0.0727
     18 N2         -5.2183   -2.7760    6.4850 N.pl3     1 <0>        -0.5028
     19 H1         -4.8880   -1.9542    6.8804 H         1 <0>         0.4191
     20 C14        -6.9842   -3.3330    8.2626 C.3       1 <0>        -0.0573
     21 C15        -8.2329   -4.2217    8.2231 C.3       1 <0>        -0.1131
     22 C16        -7.8289   -5.6576    7.8783 C.3       1 <0>        -0.1198
     23 C17        -7.3848   -5.7252    6.4120 C.3       1 <0>        -0.0473
     24 C18        -5.3461   -5.4634    3.9481 C.3       1 <0>        -0.0391
     25 C19        -4.3070   -6.5305    4.2980 C.3       1 <0>        -0.1365
     26 C20        -4.1597   -7.4862    3.1423 C.2       1 <0>         0.5150
     27 O3         -4.8207   -7.3294    2.1376 O.2       1 <0>        -0.5424
     28 N3         -3.2933   -8.5153    3.2250 N.am      1 <0>        -0.8584
     29 C21        -4.4697   -0.4051    4.8610 C.2       1 <0>         0.5584
     30 O4         -5.4885   -0.5727    5.5077 O.2       1 <0>        -0.5034
     31 N4         -3.9477    0.7804    4.5032 N.am      1 <0>        -0.6509
     32 H2          0.8553    0.9350   -0.9129 H         1 <0>         0.0704
     33 H3         -0.2193   -0.0913   -1.8927 H         1 <0>         0.0849
     34 H4         -0.8327    0.6784   -0.4096 H         1 <0>         0.0604
     35 H5          0.4562   -1.8324   -0.5147 H         1 <0>         0.4206
     36 H6         -0.1253    1.8279    2.0651 H         1 <0>         0.1499
     37 H7         -2.1039    2.5980    3.2953 H         1 <0>         0.1396
     38 H8         -1.1856   -2.2328    2.8181 H         1 <0>         0.1459
     39 H9         -3.1085   -3.5045    3.9334 H         1 <0>         0.1541
     40 H10        -6.3727   -3.5975    9.1253 H         1 <0>         0.0800
     41 H11        -7.2807   -2.2862    8.3294 H         1 <0>         0.0770
     42 H12        -8.7209   -4.2058    9.1976 H         1 <0>         0.0715
     43 H13        -8.9217   -3.8466    7.4661 H         1 <0>         0.0683
     44 H14        -7.0058   -5.9680    8.5219 H         1 <0>         0.0644
     45 H15        -8.6799   -6.3212    8.0312 H         1 <0>         0.0677
     46 H16        -8.2473   -5.5852    5.7603 H         1 <0>         0.0701
     47 H17        -6.9260   -6.6934    6.2116 H         1 <0>         0.0700
     48 H18        -6.3048   -5.9417    3.7478 H         1 <0>         0.0841
     49 H19        -5.0211   -4.9161    3.0633 H         1 <0>         0.0771
     50 H20        -3.3483   -6.0521    4.4984 H         1 <0>         0.0946
     51 H21        -4.6320   -7.0777    5.1829 H         1 <0>         0.0977
     52 H22        -2.7646   -8.6408    4.0286 H         1 <0>         0.4021
     53 H23        -3.1985   -9.1305    2.4811 H         1 <0>         0.4016
     54 H24        -4.3369    1.6398    4.7288 H         1 <0>         0.4211
@<TRIPOS>BOND
     1    1    2 1
     2    1   32 1
     3    1   33 1
     4    1   34 1
     5    2    3 1
     6    2   35 1
     7    3    4 2
     8    3    5 2
     9    3    6 1
    10    6   11 ar
    11    6    7 ar
    12    7    8 ar
    13    7   36 1
    14    8    9 ar
    15    8   37 1
    16    9   31 1
    17    9   10 ar
    18   10   11 ar
    19   10   12 1
    20   11   38 1
    21   12   13 2
    22   12   29 1
    23   13   14 1
    24   13   39 1
    25   14   18 1
    26   14   15 2
    27   15   16 1
    28   15   24 1
    29   16   23 1
    30   16   17 2
    31   17   18 1
    32   17   20 1
    33   18   19 1
    34   20   21 1
    35   20   40 1
    36   20   41 1
    37   21   22 1
    38   21   42 1
    39   21   43 1
    40   22   23 1
    41   22   44 1
    42   22   45 1
    43   23   46 1
    44   23   47 1
    45   24   25 1
    46   24   48 1
    47   24   49 1
    48   25   26 1
    49   25   50 1
    50   25   51 1
    51   26   27 2
    52   26   28 am
    53   28   52 1
    54   28   53 1
    55   29   30 2
    56   29   31 am
    57   31   54 1
@<TRIPOS>MOLECULE
CHEMBL364623
   41    43     0     0     0
SMALL
USER_CHARGES

@<TRIPOS>ATOM
      1 C1         -1.3105    1.1512    0.2219 C.3       1 <0>        -0.1166
      2 C2         -0.6007   -0.1731    0.1055 C.ar      1 <0>        -0.0849
      3 C3         -0.5986   -0.8531   -1.0971 C.ar      1 <0>        -0.1054
      4 C4          0.0522   -2.0681   -1.2054 C.ar      1 <0>        -0.1065
      5 C5          0.7034   -2.6073   -0.1108 C.ar      1 <0>        -0.1063
      6 C6          0.7050   -1.9328    1.0951 C.ar      1 <0>        -0.0241
      7 C7          0.0567   -0.7080    1.2051 C.ar      1 <0>         0.1453
      8 N1          0.0613   -0.0191    2.4226 N.am      1 <0>        -0.6729
      9 C8         -0.3207   -0.6458    3.5530 C.2       1 <0>         0.6126
     10 O1         -0.5729   -1.8369    3.5333 O.2       1 <0>        -0.4889
     11 C9         -0.4325    0.1046    4.8031 C.2       1 <0>        -0.3063
     12 C10        -0.7972   -0.3314    6.0694 C.2       1 <0>         0.1707
     13 N2         -0.8106    0.5741    7.0147 N.2       1 <0>        -0.5202
     14 C11        -0.4930    1.8328    6.7692 C.2       1 <0>         0.3062
     15 S1         -0.1299    1.8347    5.1259 S.3       1 <0>         0.1414
     16 N3         -0.4607    2.8937    7.6525 N.pl3     1 <0>        -0.5899
     17 C12        -0.6832    2.6774    9.0052 C.ar      1 <0>         0.4149
     18 C13        -0.5423    3.7203    9.9228 C.ar      1 <0>        -0.2718
     19 C14        -0.7753    3.4545   11.2580 C.ar      1 <0>         0.2047
     20 N4         -1.1222    2.2281   11.6223 N.ar      1 <0>        -0.5418
     21 C15        -1.2468    1.2651   10.7315 C.ar      1 <0>         0.3587
     22 N5         -1.0393    1.4752    9.4473 N.ar      1 <0>        -0.5139
     23 C16        -1.6434   -0.1134   11.1936 C.3       1 <0>        -0.0851
     24 C17        -0.6362    4.5455   12.2883 C.3       1 <0>        -0.1074
     25 Cl1         1.5220   -2.6103    2.4689 Cl        1 <0>        -0.0433
     26 H1         -0.6202    1.9567   -0.0284 H         1 <0>         0.0756
     27 H2         -2.1568    1.1713   -0.4648 H         1 <0>         0.0756
     28 H3         -1.6680    1.2832    1.2431 H         1 <0>         0.0673
     29 H4         -1.1064   -0.4352   -1.9538 H         1 <0>         0.1339
     30 H5          0.0517   -2.5975   -2.1467 H         1 <0>         0.1353
     31 H6          1.2109   -3.5566   -0.1987 H         1 <0>         0.1373
     32 H7          0.3395    0.9097    2.4533 H         1 <0>         0.4086
     33 H8         -1.0563   -1.3617    6.2641 H         1 <0>         0.1892
     34 H9         -0.2825    3.7901    7.3276 H         1 <0>         0.4407
     35 H10        -0.2580    4.7098    9.5967 H         1 <0>         0.1481
     36 H11        -2.7296   -0.2024   11.1806 H         1 <0>         0.0878
     37 H12        -1.2097   -0.8588   10.5270 H         1 <0>         0.0891
     38 H13        -1.2776   -0.2759   12.2074 H         1 <0>         0.0872
     39 H14        -1.5933    5.0522   12.4124 H         1 <0>         0.0878
     40 H15        -0.3296    4.1102   13.2394 H         1 <0>         0.0857
     41 H16         0.1148    5.2633   11.9584 H         1 <0>         0.0815
@<TRIPOS>BOND
     1    1    2 1
     2    1   26 1
     3    1   27 1
     4    1   28 1
     5    2    7 ar
     6    2    3 ar
     7    3    4 ar
     8    3   29 1
     9    4    5 ar
    10    4   30 1
    11    5    6 ar
    12    5   31 1
    13    6    7 ar
    14    6   25 1
    15    7    8 1
    16    8    9 am
    17    8   32 1
    18    9   10 2
    19    9   11 1
    20   11   15 1
    21   11   12 2
    22   12   13 1
    23   12   33 1
    24   13   14 2
    25   14   15 1
    26   14   16 1
    27   16   17 1
    28   16   34 1
    29   17   22 ar
    30   17   18 ar
    31   18   19 ar
    32   18   35 1
    33   19   20 ar
    34   19   24 1
    35   20   21 ar
    36   21   22 ar
    37   21   23 1
    38   23   36 1
    39   23   37 1
    40   23   38 1
    41   24   39 1
    42   24   40 1
    43   24   41 1
@<TRIPOS>MOLECULE
CHEMBL375666
   64    68     0     0     0
SMALL
USER_CHARGES

@<TRIPOS>ATOM
      1 C1         -2.4343   -1.1030    1.4952 C.3       1 <0>        -0.1162
      2 C2         -1.1545   -1.2530    0.7137 C.ar      1 <0>        -0.0849
      3 C3         -1.1560   -1.9311   -0.4900 C.ar      1 <0>        -0.0931
      4 C4          0.0158   -2.0707   -1.2089 C.ar      1 <0>        -0.1297
      5 C5          1.1986   -1.5300   -0.7236 C.ar      1 <0>         0.1121
      6 C6          1.2043   -0.8487    0.4831 C.ar      1 <0>        -0.1374
      7 C7          0.0250   -0.7044    1.2013 C.ar      1 <0>         0.1439
      8 N1          0.0255   -0.0129    2.4161 N.pl3     1 <0>        -0.6557
      9 C8         -0.0583   -0.7110    3.6111 C.ar      1 <0>         0.4774
     10 C9         -0.0351   -2.1076    3.6193 C.ar      1 <0>        -0.2948
     11 C10        -0.1208   -2.7601    4.8335 C.ar      1 <0>         0.2333
     12 N2         -0.2217   -2.0476    5.9463 N.ar      1 <0>        -0.5688
     13 C11        -0.2413   -0.7249    5.9081 C.ar      1 <0>         0.5940
     14 N3         -0.1564   -0.0611    4.7664 N.ar      1 <0>        -0.5881
     15 N4         -0.3490   -0.0133    7.1002 N.pl3     1 <0>        -0.4299
     16 C12        -0.4345   -0.5432    8.3547 C.2       1 <0>         0.2921
     17 N5         -0.5234    0.4089    9.2358 N.2       1 <0>        -0.4754
     18 C13        -0.5014    1.6155    8.6117 C.ar      1 <0>         0.0463
     19 C14        -0.3833    1.3638    7.2344 C.ar      1 <0>         0.0586
     20 C15        -0.3296    2.4216    6.3390 C.ar      1 <0>        -0.0910
     21 C16        -0.3891    3.7184    6.8048 C.ar      1 <0>        -0.1018
     22 C17        -0.5019    3.9725    8.1639 C.ar      1 <0>        -0.1171
     23 C18        -0.5657    2.9348    9.0662 C.ar      1 <0>        -0.0657
     24 C19        -0.1002   -4.2658    4.8923 C.3       1 <0>        -0.0693
     25 C20         1.0184   -4.7243    5.8301 C.3       1 <0>        -0.1133
     26 C21         1.0393   -6.2530    5.8897 C.3       1 <0>        -0.1167
     27 C22         2.1579   -6.7116    6.8275 C.3       1 <0>        -0.1011
     28 C23         3.5149   -6.3200    6.2357 C.3       1 <0>        -0.1475
     29 C24         4.6310   -6.8509    7.1379 C.3       1 <0>        -0.0081
     30 N6          4.5384   -8.3130    7.2281 N.4       1 <0>        -0.5054
     31 C25         3.2697   -8.6936    7.8606 C.3       1 <0>        -0.0076
     32 C26         2.1013   -8.2337    6.9862 C.3       1 <0>        -0.1448
     33 O1          2.3504   -1.6690   -1.4314 O.3       1 <0>        -0.4972
     34 H1         -2.9444   -0.1909    1.1855 H         1 <0>         0.0774
     35 H2         -3.0784   -1.9617    1.3057 H         1 <0>         0.0733
     36 H3         -2.2058   -1.0481    2.5595 H         1 <0>         0.0615
     37 H4         -2.0748   -2.3531   -0.8697 H         1 <0>         0.1369
     38 H5          0.0114   -2.6017   -2.1493 H         1 <0>         0.1366
     39 H6          2.1237   -0.4277    0.8623 H         1 <0>         0.1342
     40 H7          0.0846    0.9552    2.4231 H         1 <0>         0.4203
     41 H8          0.0476   -2.6642    2.6975 H         1 <0>         0.1482
     42 H9         -0.4294   -1.5989    8.5824 H         1 <0>         0.2225
     43 H10        -0.2411    2.2303    5.2798 H         1 <0>         0.1378
     44 H11        -0.3472    4.5414    6.1068 H         1 <0>         0.1341
     45 H12        -0.5472    4.9924    8.5162 H         1 <0>         0.1352
     46 H13        -0.6519    3.1403   10.1230 H         1 <0>         0.1352
     47 H14        -1.0583   -4.6279    5.2652 H         1 <0>         0.0949
     48 H15         0.0758   -4.6660    3.8938 H         1 <0>         0.0876
     49 H16         1.9764   -4.3622    5.4571 H         1 <0>         0.0629
     50 H17         0.8424   -4.3241    6.8285 H         1 <0>         0.0801
     51 H18         0.0812   -6.6152    6.2626 H         1 <0>         0.0777
     52 H19         1.2153   -6.6532    4.8913 H         1 <0>         0.0704
     53 H20         2.0336   -6.2387    7.8017 H         1 <0>         0.0914
     54 H21         3.6158   -6.7514    5.2398 H         1 <0>         0.0892
     55 H22         3.5843   -5.2341    6.1715 H         1 <0>         0.1127
     56 H23         5.5986   -6.5736    6.7196 H         1 <0>         0.1322
     57 H24         4.5293   -6.4187    8.1334 H         1 <0>         0.1303
     58 H25         4.5834   -8.7096    6.3015 H         1 <0>         0.4273
     59 H26         3.2323   -9.7769    7.9758 H         1 <0>         0.1328
     60 H27         3.1971   -8.2222    8.8407 H         1 <0>         0.1303
     61 H28         1.1602   -8.5157    7.4584 H         1 <0>         0.1129
     62 H29         2.1728   -8.7048    6.0058 H         1 <0>         0.0888
     63 H30         2.5132   -0.9542   -2.0620 H         1 <0>         0.3967
     64 H31         5.3068   -8.6642    7.7798 H         1 <0>         0.4315
@<TRIPOS>BOND
     1    1    2 1
     2    1   34 1
     3    1   35 1
     4    1   36 1
     5    2    7 ar
     6    2    3 ar
     7    3    4 ar
     8    3   37 1
     9    4    5 ar
    10    4   38 1
    11    5    6 ar
    12    5   33 1
    13    6    7 ar
    14    6   39 1
    15    7    8 1
    16    8    9 1
    17    8   40 1
    18    9   14 ar
    19    9   10 ar
    20   10   11 ar
    21   10   41 1
    22   11   12 ar
    23   11   24 1
    24   12   13 ar
    25   13   14 ar
    26   13   15 1
    27   15   19 1
    28   15   16 1
    29   16   17 2
    30   16   42 1
    31   17   18 1
    32   18   23 ar
    33   18   19 ar
    34   19   20 ar
    35   20   21 ar
    36   20   43 1
    37   21   22 ar
    38   21   44 1
    39   22   23 ar
    40   22   45 1
    41   23   46 1
    42   24   25 1
    43   24   47 1
    44   24   48 1
    45   25   26 1
    46   25   49 1
    47   25   50 1
    48   26   27 1
    49   26   51 1
    50   26   52 1
    51   27   32 1
    52   27   28 1
    53   27   53 1
    54   28   29 1
    55   28   54 1
    56   28   55 1
    57   29   30 1
    58   29   56 1
    59   29   57 1
    60   30   31 1
    61   30   58 1
    62   30   64 1
    63   31   32 1
    64   31   59 1
    65   31   60 1
    66   32   61 1
    67   32   62 1
    68   33   63 1
@<TRIPOS>MOLECULE
CHEMBL220958
   39    42     0     0     0
SMALL
USER_CHARGES

@<TRIPOS>ATOM
      1 C1         -1.1555    1.0063    0.0385 C.3       1 <0>        -0.1159
      2 C2         -0.3042   -0.2372    0.0351 C.ar      1 <0>        -0.1209
      3 C3         -0.0739   -0.9130   -1.1477 C.ar      1 <0>        -0.0829
      4 C4          0.7058   -2.0537   -1.1543 C.ar      1 <0>        -0.1565
      5 C5          1.2608   -2.5241    0.0279 C.ar      1 <0>         0.1196
      6 C6          1.0327   -1.8489    1.2164 C.ar      1 <0>        -0.1365
      7 C7          0.2533   -0.7000    1.2203 C.ar      1 <0>         0.1767
      8 N1          0.0255   -0.0128    2.4163 N.pl3     1 <0>        -0.6299
      9 C8         -0.0582   -0.7098    3.6105 C.ar      1 <0>         0.5924
     10 N2         -0.0340   -2.0344    3.5885 N.ar      1 <0>        -0.5600
     11 C9         -0.1118   -2.7347    4.7096 C.ar      1 <0>         0.2202
     12 C10        -0.2198   -2.0686    5.9166 C.ar      1 <0>        -0.2955
     13 C11        -0.2427   -0.6744    5.9074 C.ar      1 <0>         0.4489
     14 N3         -0.1551   -0.0355    4.7462 N.ar      1 <0>        -0.5840
     15 N4         -0.3503    0.0385    7.0999 N.pl3     1 <0>        -0.4409
     16 C12        -0.4357   -0.4907    8.3545 C.2       1 <0>         0.2754
     17 N5         -0.5239    0.4620    9.2352 N.2       1 <0>        -0.4691
     18 C13        -0.5015    1.6681    8.6104 C.ar      1 <0>         0.0434
     19 C14        -0.3843    1.4154    7.2332 C.ar      1 <0>         0.0558
     20 C15        -0.3309    2.4727    6.3370 C.ar      1 <0>        -0.0909
     21 C16        -0.3901    3.7697    6.8019 C.ar      1 <0>        -0.1020
     22 C17        -0.5022    4.0249    8.1609 C.ar      1 <0>        -0.1192
     23 C18        -0.5646    2.9878    9.0641 C.ar      1 <0>        -0.0652
     24 O1          2.0271   -3.6464    0.0199 O.3       1 <0>        -0.4961
     25 H1         -0.5247    1.8790   -0.1303 H         1 <0>         0.0724
     26 H2         -1.9011    0.9383   -0.7537 H         1 <0>         0.0740
     27 H3         -1.6566    1.1010    1.0018 H         1 <0>         0.0627
     28 H4         -0.5045   -0.5492   -2.0690 H         1 <0>         0.1323
     29 H5          0.8834   -2.5802   -2.0804 H         1 <0>         0.1304
     30 H6          1.4634   -2.2136    2.1371 H         1 <0>         0.1424
     31 H7         -0.0738    0.9521    2.4099 H         1 <0>         0.4255
     32 H8         -0.0916   -3.8141    4.6815 H         1 <0>         0.1836
     33 H9         -0.2852   -2.6159    6.8454 H         1 <0>         0.1553
     34 H10        -0.4308   -1.5462    8.5828 H         1 <0>         0.2241
     35 H11        -0.2429    2.2807    5.2779 H         1 <0>         0.1375
     36 H12        -0.3484    4.5924    6.1034 H         1 <0>         0.1337
     37 H13        -0.5473    5.0450    8.5126 H         1 <0>         0.1343
     38 H14        -0.6505    3.1940   10.1207 H         1 <0>         0.1345
     39 H15         2.9685   -3.4788   -0.1244 H         1 <0>         0.3907
@<TRIPOS>BOND
     1    1    2 1
     2    1   25 1
     3    1   26 1
     4    1   27 1
     5    2    7 ar
     6    2    3 ar
     7    3    4 ar
     8    3   28 1
     9    4    5 ar
    10    4   29 1
    11    5    6 ar
    12    5   24 1
    13    6    7 ar
    14    6   30 1
    15    7    8 1
    16    8    9 1
    17    8   31 1
    18    9   14 ar
    19    9   10 ar
    20   10   11 ar
    21   11   12 ar
    22   11   32 1
    23   12   13 ar
    24   12   33 1
    25   13   14 ar
    26   13   15 1
    27   15   19 1
    28   15   16 1
    29   16   17 2
    30   16   34 1
    31   17   18 1
    32   18   23 ar
    33   18   19 ar
    34   19   20 ar
    35   20   21 ar
    36   20   35 1
    37   21   22 ar
    38   21   36 1
    39   22   23 ar
    40   22   37 1
    41   23   38 1
    42   24   39 1
@<TRIPOS>MOLECULE
CHEMBL220551
   38    41     0     0     0
SMALL
USER_CHARGES

@<TRIPOS>ATOM
      1 C1         -1.1597    1.0036    0.0394 C.3       1 <0>        -0.1158
      2 C2         -0.3063   -0.2385    0.0355 C.ar      1 <0>        -0.1217
      3 C3         -0.0762   -0.9143   -1.1473 C.ar      1 <0>        -0.0826
      4 C4          0.7058   -2.0535   -1.1544 C.ar      1 <0>        -0.1575
      5 C5          1.2625   -2.5228    0.0274 C.ar      1 <0>         0.1200
      6 C6          1.0341   -1.8478    1.2160 C.ar      1 <0>        -0.1383
      7 C7          0.2532   -0.7000    1.2203 C.ar      1 <0>         0.1781
      8 N1          0.0255   -0.0128    2.4163 N.pl3     1 <0>        -0.6317
      9 C8         -0.0582   -0.7098    3.6106 C.ar      1 <0>         0.5654
     10 N2         -0.0339   -2.0350    3.5879 N.ar      1 <0>        -0.5383
     11 C9         -0.1111   -2.7365    4.7067 C.ar      1 <0>         0.2006
     12 C10        -0.2188   -2.0718    5.9168 C.ar      1 <0>        -0.2382
     13 C11        -0.2420   -0.6754    5.9089 C.ar      1 <0>         0.2722
     14 N3         -0.1551   -0.0355    4.7451 N.ar      1 <0>        -0.5400
     15 C12        -0.3566    0.0831    7.1788 C.2       1 <0>         0.1723
     16 C13         0.0979    1.4628    7.4162 C.ar      1 <0>        -0.1755
     17 C14         0.7227    2.4221    6.6191 C.ar      1 <0>        -0.0263
     18 C15         1.0265    3.6475    7.1427 C.ar      1 <0>        -0.1487
     19 C16         0.7179    3.9452    8.4624 C.ar      1 <0>        -0.0557
     20 C17         0.1007    3.0111    9.2658 C.ar      1 <0>        -0.1249
     21 C18        -0.2163    1.7591    8.7515 C.ar      1 <0>         0.0821
     22 O1         -0.8052    0.6656    9.2765 O.3       1 <0>        -0.0744
     23 N4         -0.8844   -0.3463    8.2930 N.2       1 <0>        -0.2567
     24 O2          2.0306   -3.6438    0.0190 O.3       1 <0>        -0.4962
     25 H1         -0.5305    1.8773   -0.1303 H         1 <0>         0.0722
     26 H2         -1.9061    0.9341   -0.7520 H         1 <0>         0.0735
     27 H3         -1.6599    1.0977    1.0033 H         1 <0>         0.0632
     28 H4         -0.5087   -0.5518   -2.0682 H         1 <0>         0.1320
     29 H5          0.8839   -2.5796   -2.0806 H         1 <0>         0.1301
     30 H6          1.4664   -2.2116    2.1364 H         1 <0>         0.1415
     31 H7         -0.0738    0.9521    2.4099 H         1 <0>         0.4260
     32 H8         -0.0907   -3.8159    4.6767 H         1 <0>         0.1832
     33 H9         -0.2838   -2.6204    6.8449 H         1 <0>         0.1574
     34 H10         0.9661    2.1970    5.5913 H         1 <0>         0.1391
     35 H11         1.5106    4.3894    6.5249 H         1 <0>         0.1372
     36 H12         0.9638    4.9173    8.8635 H         1 <0>         0.1433
     37 H13        -0.1360    3.2510   10.2919 H         1 <0>         0.1428
     38 H14         2.9716   -3.4747   -0.1260 H         1 <0>         0.3906
@<TRIPOS>BOND
     1    1    2 1
     2    1   25 1
     3    1   26 1
     4    1   27 1
     5    2    7 ar
     6    2    3 ar
     7    3    4 ar
     8    3   28 1
     9    4    5 ar
    10    4   29 1
    11    5    6 ar
    12    5   24 1
    13    6    7 ar
    14    6   30 1
    15    7    8 1
    16    8    9 1
    17    8   31 1
    18    9   14 ar
    19    9   10 ar
    20   10   11 ar
    21   11   12 ar
    22   11   32 1
    23   12   13 ar
    24   12   33 1
    25   13   14 ar
    26   13   15 1
    27   15   23 2
    28   15   16 1
    29   16   21 ar
    30   16   17 ar
    31   17   18 ar
    32   17   34 1
    33   18   19 ar
    34   18   35 1
    35   19   20 ar
    36   19   36 1
    37   20   21 ar
    38   20   37 1
    39   21   22 1
    40   22   23 1
    41   24   38 1
@<TRIPOS>MOLECULE
CHEMBL247880
   69    74     0     0     0
SMALL
USER_CHARGES

@<TRIPOS>ATOM
      1 C1         -0.0630    1.2922    0.0671 C.ar      1 <0>        -0.1149
      2 C2          1.1012    2.0204   -0.1023 C.ar      1 <0>        -0.1124
      3 C3          2.3218    1.3781   -0.1328 C.ar      1 <0>        -0.0925
      4 C4          2.3805   -0.0090    0.0075 C.ar      1 <0>        -0.0151
      5 C5          1.2028   -0.7376    0.1779 C.ar      1 <0>        -0.1169
      6 C6         -0.0115   -0.0833    0.2067 C.ar      1 <0>        -0.1193
      7 C7          3.6865   -0.7045   -0.0248 C.2       1 <0>        -0.1109
      8 C8          4.1741   -1.6288   -1.0568 C.ar      1 <0>        -0.2684
      9 C9          3.6602   -2.1443   -2.2542 C.ar      1 <0>         0.4927
     10 N1          4.4146   -2.9889   -2.9526 N.ar      1 <0>        -0.5863
     11 C10         5.6168   -3.3328   -2.5287 C.ar      1 <0>         0.3695
     12 N2          6.1359   -2.8722   -1.4104 N.ar      1 <0>        -0.5372
     13 C11         5.4576   -2.0218   -0.6437 C.ar      1 <0>         0.3263
     14 O1          5.7221   -1.4005    0.5186 O.3       1 <0>        -0.1651
     15 C12         4.6937   -0.6155    0.8978 C.2       1 <0>         0.1139
     16 C13         4.6583    0.2096    2.1194 C.ar      1 <0>        -0.1047
     17 C14         3.5462    0.1619    2.9651 C.ar      1 <0>        -0.0229
     18 C15         3.5170    0.9338    4.1056 C.ar      1 <0>        -0.2012
     19 C16         4.5920    1.7597    4.4163 C.ar      1 <0>         0.2455
     20 C17         5.7002    1.8098    3.5773 C.ar      1 <0>        -0.2008
     21 C18         5.7391    1.0369    2.4378 C.ar      1 <0>        -0.0309
     22 N3          4.5585    2.5404    5.5722 N.pl3     1 <0>        -0.6254
     23 C19         5.6219    3.5164    5.8583 C.3       1 <0>         0.0818
     24 C20         4.9669    4.8628    6.1867 C.3       1 <0>         0.0459
     25 O2          3.9876    4.6725    7.2107 O.3       1 <0>        -0.3766
     26 C21         2.9087    3.8126    6.8362 C.3       1 <0>         0.0457
     27 C22         3.4554    2.4164    6.5383 C.3       1 <0>         0.0817
     28 N4          2.4004   -1.7846   -2.6985 N.pl3     1 <0>        -0.7066
     29 C23         1.8815   -2.3348   -3.9532 C.3       1 <0>         0.1305
     30 C24         0.4791   -1.7804   -4.2117 C.3       1 <0>         0.0417
     31 N5         -0.0413   -2.3321   -5.4698 N.3       1 <0>        -0.5334
     32 C25        -0.2589   -3.7815   -5.3592 C.3       1 <0>         0.0161
     33 C26        -0.7430   -4.3257   -6.7050 C.3       1 <0>        -0.0025
     34 N6         -1.9925   -3.6532   -7.0844 N.4       1 <0>        -0.5087
     35 C27        -1.7536   -2.2098   -7.2149 C.3       1 <0>        -0.0024
     36 C28        -1.2779   -1.6479   -5.8734 C.3       1 <0>         0.0246
     37 H1         -1.0157    1.8002    0.0948 H         1 <0>         0.1241
     38 H2          1.0543    3.0939   -0.2111 H         1 <0>         0.1267
     39 H3          3.2298    1.9476   -0.2654 H         1 <0>         0.1246
     40 H4          1.2416   -1.8114    0.2867 H         1 <0>         0.1212
     41 H5         -0.9239   -0.6461    0.3385 H         1 <0>         0.1237
     42 H6          6.1982   -4.0211   -3.1242 H         1 <0>         0.2121
     43 H7          2.7109   -0.4789    2.7243 H         1 <0>         0.1251
     44 H8          2.6580    0.8978    4.7593 H         1 <0>         0.1302
     45 H9          6.5330    2.4526    3.8217 H         1 <0>         0.1311
     46 H10         6.6019    1.0730    1.7892 H         1 <0>         0.1290
     47 H11         6.2117    3.1776    6.7100 H         1 <0>         0.0764
     48 H12         6.2655    3.6245    4.9852 H         1 <0>         0.0952
     49 H13         5.7269    5.5621    6.5352 H         1 <0>         0.1086
     50 H14         4.4865    5.2616    5.2932 H         1 <0>         0.0565
     51 H15         2.1880    3.7563    7.6520 H         1 <0>         0.1079
     52 H16         2.4208    4.2076    5.9451 H         1 <0>         0.0558
     53 H17         2.6649    1.7964    6.1153 H         1 <0>         0.0945
     54 H18         3.8234    1.9650    7.4596 H         1 <0>         0.0761
     55 H19         1.8607   -1.1680   -2.1793 H         1 <0>         0.4137
     56 H20         2.5408   -2.0524   -4.7739 H         1 <0>         0.0834
     57 H21         1.8351   -3.4214   -3.8817 H         1 <0>         0.0699
     58 H22        -0.1802   -2.0628   -3.3909 H         1 <0>         0.0543
     59 H23         0.5254   -0.6937   -4.2832 H         1 <0>         0.0953
     60 H24         0.6762   -4.2697   -5.0846 H         1 <0>         0.1284
     61 H25        -1.0108   -3.9791   -4.5953 H         1 <0>         0.0634
     62 H26         0.0150   -4.1400   -7.4659 H         1 <0>         0.1418
     63 H27        -0.9186   -5.3982   -6.6213 H         1 <0>         0.1400
     64 H28        -2.3181   -4.0210   -7.9658 H         1 <0>         0.4352
     65 H29        -0.9904   -2.0349   -7.9732 H         1 <0>         0.1413
     66 H30        -2.6785   -1.7136   -7.5091 H         1 <0>         0.1398
     67 H31        -2.0466   -1.8104   -5.1179 H         1 <0>         0.0629
     68 H32        -1.0863   -0.5796   -5.9738 H         1 <0>         0.1251
     69 H33        -2.6907   -3.8155   -6.3742 H         1 <0>         0.4259
@<TRIPOS>BOND
     1    1    6 ar
     2    1    2 ar
     3    1   37 1
     4    2    3 ar
     5    2   38 1
     6    3    4 ar
     7    3   39 1
     8    4    5 ar
     9    4    7 1
    10    5    6 ar
    11    5   40 1
    12    6   41 1
    13    7   15 2
    14    7    8 1
    15    8   13 ar
    16    8    9 ar
    17    9   10 ar
    18    9   28 1
    19   10   11 ar
    20   11   12 ar
    21   11   42 1
    22   12   13 ar
    23   13   14 1
    24   14   15 1
    25   15   16 1
    26   16   21 ar
    27   16   17 ar
    28   17   18 ar
    29   17   43 1
    30   18   19 ar
    31   18   44 1
    32   19   20 ar
    33   19   22 1
    34   20   21 ar
    35   20   45 1
    36   21   46 1
    37   22   27 1
    38   22   23 1
    39   23   24 1
    40   23   47 1
    41   23   48 1
    42   24   25 1
    43   24   49 1
    44   24   50 1
    45   25   26 1
    46   26   27 1
    47   26   51 1
    48   26   52 1
    49   27   53 1
    50   27   54 1
    51   28   29 1
    52   28   55 1
    53   29   30 1
    54   29   56 1
    55   29   57 1
    56   30   31 1
    57   30   58 1
    58   30   59 1
    59   31   36 1
    60   31   32 1
    61   32   33 1
    62   32   60 1
    63   32   61 1
    64   33   34 1
    65   33   62 1
    66   33   63 1
    67   34   35 1
    68   34   64 1
    69   34   69 1
    70   35   36 1
    71   35   65 1
    72   35   66 1
    73   36   67 1
    74   36   68 1
@<TRIPOS>MOLECULE
CHEMBL569240
   43    46     0     0     0
SMALL
USER_CHARGES

@<TRIPOS>ATOM
      1 C1         -0.0187    1.5258    0.0104 C.3       1 <0>        -0.1576
      2 C2          0.0021   -0.0041    0.0020 C.3       1 <0>         0.2012
      3 H1          0.5123   -0.3556   -0.8948 H         1 <0>         0.1030
      4 C3          0.7309   -0.5033    1.2229 C.ar      1 <0>        -0.0958
      5 C4          0.0808   -0.5585    2.4416 C.ar      1 <0>        -0.1144
      6 C5          0.7494   -1.0164    3.5615 C.ar      1 <0>        -0.1152
      7 C6          2.0680   -1.4196    3.4626 C.ar      1 <0>        -0.1171
      8 C7          2.7178   -1.3652    2.2438 C.ar      1 <0>        -0.1150
      9 C8          2.0479   -0.9113    1.1230 C.ar      1 <0>        -0.1055
     10 N1         -1.3723   -0.5112    0.0124 N.pl3     1 <0>        -0.6881
     11 C9         -2.0691   -0.6463   -1.1758 C.ar      1 <0>         0.6005
     12 N2         -1.4755   -0.3173   -2.3138 N.ar      1 <0>        -0.5769
     13 C10        -2.1101   -0.4334   -3.4702 C.ar      1 <0>         0.2217
     14 C11        -3.4098   -0.9050   -3.4837 C.ar      1 <0>        -0.3085
     15 C12        -4.0076   -1.2430   -2.2700 C.ar      1 <0>         0.4528
     16 N3         -3.3107   -1.1063   -1.1475 N.ar      1 <0>        -0.5917
     17 N4         -5.3154   -1.7223   -2.2358 N.pl3     1 <0>        -0.4422
     18 C13        -6.1345   -1.9201   -3.3105 C.2       1 <0>         0.2541
     19 N5         -7.2859   -2.3761   -2.9153 N.2       1 <0>        -0.4585
     20 C14        -7.2895   -2.5039   -1.5618 C.ar      1 <0>        -0.0128
     21 C15        -6.0250   -2.0926   -1.1071 C.ar      1 <0>         0.1110
     22 C16        -5.7340   -2.1212    0.2483 C.ar      1 <0>        -0.1842
     23 C17        -6.6942   -2.5597    1.1461 C.ar      1 <0>         0.2347
     24 C18        -7.9457   -2.9700    0.6914 C.ar      1 <0>        -0.1852
     25 C19        -8.2460   -2.9378   -0.6405 C.ar      1 <0>        -0.0155
     26 N6         -6.4058   -2.5910    2.5137 N.pl3     1 <0>        -0.8718
     27 H2          1.0039    1.9031    0.0027 H         1 <0>         0.0703
     28 H3         -0.5459    1.8868   -0.8726 H         1 <0>         0.0660
     29 H4         -0.5289    1.8773    0.9072 H         1 <0>         0.0572
     30 H5         -0.9493   -0.2435    2.5188 H         1 <0>         0.1189
     31 H6          0.2417   -1.0589    4.5138 H         1 <0>         0.1241
     32 H7          2.5905   -1.7767    4.3377 H         1 <0>         0.1239
     33 H8          3.7481   -1.6798    2.1666 H         1 <0>         0.1257
     34 H9          2.5545   -0.8723    0.1700 H         1 <0>         0.1259
     35 H10        -1.7940   -0.7522    0.8520 H         1 <0>         0.4121
     36 H11        -1.6181   -0.1624   -4.3926 H         1 <0>         0.1786
     37 H12        -3.9499   -1.0090   -4.4131 H         1 <0>         0.1510
     38 H13        -5.8654   -1.7255   -4.3382 H         1 <0>         0.2200
     39 H14        -4.7643   -1.8039    0.6023 H         1 <0>         0.1369
     40 H15        -8.6872   -3.3100    1.3992 H         1 <0>         0.1313
     41 H16        -9.2185   -3.2598   -0.9828 H         1 <0>         0.1346
     42 H17        -5.5351   -2.3061    2.8324 H         1 <0>         0.3992
     43 H18        -7.0764   -2.8976    3.1439 H         1 <0>         0.4012
@<TRIPOS>BOND
     1    1    2 1
     2    1   27 1
     3    1   28 1
     4    1   29 1
     5    2    3 1
     6    2    4 1
     7    2   10 1
     8    4    9 ar
     9    4    5 ar
    10    5    6 ar
    11    5   30 1
    12    6    7 ar
    13    6   31 1
    14    7    8 ar
    15    7   32 1
    16    8    9 ar
    17    8   33 1
    18    9   34 1
    19   10   11 1
    20   10   35 1
    21   11   16 ar
    22   11   12 ar
    23   12   13 ar
    24   13   14 ar
    25   13   36 1
    26   14   15 ar
    27   14   37 1
    28   15   16 ar
    29   15   17 1
    30   17   21 1
    31   17   18 1
    32   18   19 2
    33   18   38 1
    34   19   20 1
    35   20   25 ar
    36   20   21 ar
    37   21   22 ar
    38   22   23 ar
    39   22   39 1
    40   23   24 ar
    41   23   26 1
    42   24   25 ar
    43   24   40 1
    44   25   41 1
    45   26   42 1
    46   26   43 1
@<TRIPOS>MOLECULE
CHEMBL337689
   33    35     0     0     0
SMALL
USER_CHARGES

@<TRIPOS>ATOM
      1 C1          0.8465   -0.2193   -1.1063 C.3       1 <0>         0.0400
      2 O1          0.0010   -0.0037    0.0253 O.3       1 <0>        -0.3081
      3 C2         -1.2300   -0.5444   -0.0202 C.2       1 <0>         0.2109
      4 C3         -2.3433    0.2493   -0.0997 C.2       1 <0>        -0.2693
      5 C4         -3.6813   -0.3874   -0.1704 C.2       1 <0>         0.1622
      6 C5         -3.8443   -1.6316    0.2919 C.2       1 <0>        -0.2320
      7 C6         -2.6588   -2.3561    0.8633 C.3       1 <0>        -0.0577
      8 C7         -1.4188   -2.0363    0.0085 C.3       1 <0>        -0.1343
      9 C8         -0.2307   -2.7272    0.6346 C.2       1 <0>         0.4045
     10 O2          0.8108   -2.1376    0.8278 O.2       1 <0>        -0.4067
     11 C9         -0.3873   -4.1508    1.0034 C.ar      1 <0>        -0.1276
     12 C10         0.7252   -4.9443    1.2624 C.ar      1 <0>        -0.0668
     13 C11         0.5539   -6.2760    1.5981 C.ar      1 <0>        -0.0989
     14 C12        -0.7141   -6.8246    1.6775 C.ar      1 <0>        -0.0950
     15 C13        -1.8334   -6.0500    1.4269 C.ar      1 <0>        -0.0689
     16 C14        -1.6817   -4.7088    1.0916 C.ar      1 <0>        -0.1240
     17 C15        -2.8640   -3.8520    0.8439 C.2       1 <0>         0.4082
     18 O3         -3.9531   -4.3356    0.6211 O.2       1 <0>        -0.4141
     19 O4         -4.7334    0.2887   -0.7006 O.3       1 <0>        -0.4665
     20 C16        -2.2187    1.6603   -0.1146 C.2       1 <0>         0.3871
     21 O5         -3.2120    2.3579   -0.0832 O.2       1 <0>        -0.4651
     22 H1          1.7738    0.3392   -0.9787 H         1 <0>         0.1098
     23 H2          1.0717   -1.2822   -1.1944 H         1 <0>         0.0577
     24 H3          0.3390    0.1206   -2.0091 H         1 <0>         0.0559
     25 H4         -4.8130   -2.1079    0.2555 H         1 <0>         0.1476
     26 H5         -2.4909   -2.0259    1.8884 H         1 <0>         0.1231
     27 H6         -1.5668   -2.4048   -1.0066 H         1 <0>         0.1455
     28 H7          1.7180   -4.5235    1.2015 H         1 <0>         0.1432
     29 H8          1.4175   -6.8926    1.7996 H         1 <0>         0.1392
     30 H9         -0.8314   -7.8662    1.9377 H         1 <0>         0.1394
     31 H10        -2.8198   -6.4851    1.4910 H         1 <0>         0.1443
     32 H11        -4.5147    1.1796   -1.0063 H         1 <0>         0.4030
     33 H12        -1.2401    2.1156   -0.1540 H         1 <0>         0.1132
@<TRIPOS>BOND
     1    1    2 1
     2    1   22 1
     3    1   23 1
     4    1   24 1
     5    2    3 1
     6    3    8 1
     7    3    4 2
     8    4    5 1
     9    4   20 1
    10    5    6 2
    11    5   19 1
    12    6    7 1
    13    6   25 1
    14    7   17 1
    15    7    8 1
    16    7   26 1
    17    8    9 1
    18    8   27 1
    19    9   10 2
    20    9   11 1
    21   11   16 ar
    22   11   12 ar
    23   12   13 ar
    24   12   28 1
    25   13   14 ar
    26   13   29 1
    27   14   15 ar
    28   14   30 1
    29   15   16 ar
    30   15   31 1
    31   16   17 1
    32   17   18 2
    33   19   32 1
    34   20   21 2
    35   20   33 1
@<TRIPOS>MOLECULE
CHEMBL337689__1
   32    34     0     0     0
SMALL
USER_CHARGES

@<TRIPOS>ATOM
      1 C1          0.8436   -0.2201   -1.1163 C.3       1 <0>         0.0417
      2 O1          0.0014   -0.0038    0.0177 O.3       1 <0>        -0.3146
      3 C2         -1.2298   -0.5444   -0.0241 C.2       1 <0>         0.1130
      4 C3         -2.3433    0.2493   -0.0997 C.2       1 <0>        -0.1989
      5 C4         -3.6816   -0.3873   -0.1663 C.2       1 <0>         0.2786
      6 C5         -3.8431   -1.6317    0.2963 C.2       1 <0>        -0.4731
      7 C6         -2.6557   -2.3564    0.8635 C.3       1 <0>        -0.0198
      8 C7         -1.4185   -2.0364    0.0048 C.3       1 <0>        -0.1111
      9 C8         -0.2285   -2.7275    0.6269 C.2       1 <0>         0.4007
     10 O2          0.8137   -2.1380    0.8169 O.2       1 <0>        -0.4220
     11 C9         -0.3839   -4.1512    0.9958 C.ar      1 <0>        -0.1224
     12 C10         0.7294   -4.9448    1.2509 C.ar      1 <0>        -0.0746
     13 C11         0.5592   -6.2766    1.5868 C.ar      1 <0>        -0.1110
     14 C12        -0.7086   -6.8252    1.6702 C.ar      1 <0>        -0.1036
     15 C13        -1.8286   -6.0505    1.4234 C.ar      1 <0>        -0.0792
     16 C14        -1.6780   -4.7092    1.0880 C.ar      1 <0>        -0.1149
     17 C15        -2.8610   -3.8523    0.8444 C.2       1 <0>         0.4011
     18 O3         -3.9509   -4.3358    0.6250 O.2       1 <0>        -0.4245
     19 O4         -4.7354    0.2890   -0.6928 O.3       1 <0>        -0.7133
     20 C16        -2.2187    1.6603   -0.1146 C.2       1 <0>         0.3692
     21 O5         -3.2120    2.3579   -0.0832 O.2       1 <0>        -0.4314
     22 H1          1.7740    0.3332   -0.9886 H         1 <0>         0.0916
     23 H2          1.0632   -1.2838   -1.2082 H         1 <0>         0.0457
     24 H3          0.3362    0.1253   -2.0170 H         1 <0>         0.0437
     25 H4         -4.8119   -2.1079    0.2628 H         1 <0>         0.1048
     26 H5         -2.4845   -2.0265    1.8882 H         1 <0>         0.0810
     27 H6         -1.5698   -2.4045   -1.0099 H         1 <0>         0.1233
     28 H7          1.7220   -4.5240    1.1869 H         1 <0>         0.1380
     29 H8          1.4234   -6.8932    1.7853 H         1 <0>         0.1315
     30 H9         -0.8251   -7.8668    1.9305 H         1 <0>         0.1318
     31 H10        -2.8148   -6.4856    1.4906 H         1 <0>         0.1395
     32 H11        -1.2401    2.1156   -0.1540 H         1 <0>         0.0792
@<TRIPOS>BOND
     1    1    2 1
     2    1   22 1
     3    1   23 1
     4    1   24 1
     5    2    3 1
     6    3    8 1
     7    3    4 2
     8    4    5 1
     9    4   20 1
    10    5    6 2
    11    5   19 1
    12    6    7 1
    13    6   25 1
    14    7   17 1
    15    7    8 1
    16    7   26 1
    17    8    9 1
    18    8   27 1
    19    9   10 2
    20    9   11 1
    21   11   16 ar
    22   11   12 ar
    23   12   13 ar
    24   12   28 1
    25   13   14 ar
    26   13   29 1
    27   14   15 ar
    28   14   30 1
    29   15   16 ar
    30   15   31 1
    31   16   17 1
    32   17   18 2
    33   20   21 2
    34   20   32 1
@<TRIPOS>MOLECULE
CHEMBL337689__2
   33    35     0     0     0
SMALL
USER_CHARGES

@<TRIPOS>ATOM
      1 C1          0.9509   -0.0772    0.6173 C.3       1 <0>         0.0230
      2 O1         -0.0173   -0.0215   -0.4322 O.3       1 <0>        -0.3237
      3 C2         -1.1525   -0.7209   -0.2535 C.2       1 <0>         0.1947
      4 C3         -2.3476   -0.0745   -0.1081 C.2       1 <0>        -0.2560
      5 C4         -3.5754   -0.8774    0.1076 C.2       1 <0>         0.1661
      6 C5         -3.5985   -2.1565   -0.2657 C.2       1 <0>        -0.2241
      7 C6         -2.3775   -2.7802   -0.8954 C.3       1 <0>        -0.0567
      8 C7         -1.1229   -2.2259   -0.2176 C.3       1 <0>        -0.1289
      9 C8          0.1007   -2.7340   -0.9405 C.2       1 <0>         0.4143
     10 O2          1.0522   -3.1557   -0.3188 O.2       1 <0>        -0.4218
     11 C9          0.1206   -2.7100   -2.4146 C.ar      1 <0>        -0.1273
     12 C10         1.3128   -2.8478   -3.1176 C.ar      1 <0>        -0.0643
     13 C11         1.2989   -2.8254   -4.5014 C.ar      1 <0>        -0.0994
     14 C12         0.1093   -2.6674   -5.1906 C.ar      1 <0>        -0.0940
     15 C13        -1.0864   -2.5265   -4.5085 C.ar      1 <0>        -0.0688
     16 C14        -1.0927   -2.5447   -3.1173 C.ar      1 <0>        -0.1219
     17 C15        -2.3430   -2.3966   -2.3592 C.2       1 <0>         0.3885
     18 O3         -3.3354   -1.9650   -2.9057 O.2       1 <0>        -0.4119
     19 O4         -4.6692   -0.3131    0.6824 O.3       1 <0>        -0.4660
     20 C16        -2.4124    1.3396   -0.1622 C.2       1 <0>         0.3865
     21 O5         -3.4894    1.8995   -0.1340 O.2       1 <0>        -0.4596
     22 H1          1.8554    0.4450    0.3053 H         1 <0>         0.1114
     23 H2          0.5464    0.3989    1.5105 H         1 <0>         0.0648
     24 H3          1.1896   -1.1178    0.8367 H         1 <0>         0.0657
     25 H4         -4.4911   -2.7463   -0.1178 H         1 <0>         0.1426
     26 H5         -2.4195   -3.8648   -0.7953 H         1 <0>         0.1395
     27 H6         -1.0954   -2.5634    0.8185 H         1 <0>         0.1462
     28 H7          2.2449   -2.9712   -2.5863 H         1 <0>         0.1423
     29 H8          2.2243   -2.9320   -5.0479 H         1 <0>         0.1392
     30 H9          0.1143   -2.6534   -6.2705 H         1 <0>         0.1392
     31 H10        -2.0106   -2.4031   -5.0536 H         1 <0>         0.1431
     32 H11        -4.5537    0.6177    0.9178 H         1 <0>         0.4031
     33 H12        -1.5038    1.9196   -0.2284 H         1 <0>         0.1143
@<TRIPOS>BOND
     1    1    2 1
     2    1   22 1
     3    1   23 1
     4    1   24 1
     5    2    3 1
     6    3    8 1
     7    3    4 2
     8    4    5 1
     9    4   20 1
    10    5    6 2
    11    5   19 1
    12    6    7 1
    13    6   25 1
    14    7   17 1
    15    7    8 1
    16    7   26 1
    17    8    9 1
    18    8   27 1
    19    9   10 2
    20    9   11 1
    21   11   16 ar
    22   11   12 ar
    23   12   13 ar
    24   12   28 1
    25   13   14 ar
    26   13   29 1
    27   14   15 ar
    28   14   30 1
    29   15   16 ar
    30   15   31 1
    31   16   17 1
    32   17   18 2
    33   19   32 1
    34   20   21 2
    35   20   33 1
@<TRIPOS>MOLECULE
CHEMBL337689__3
   32    34     0     0     0
SMALL
USER_CHARGES

@<TRIPOS>ATOM
      1 C1          0.7685   -0.0656    1.1965 C.3       1 <0>         0.0236
      2 O1          0.0025   -0.0044   -0.0083 O.3       1 <0>        -0.3305
      3 C2         -1.1409   -0.7123   -0.0416 C.2       1 <0>         0.0964
      4 C3         -2.3476   -0.0745   -0.1081 C.2       1 <0>        -0.1845
      5 C4         -3.5881   -0.8868   -0.1224 C.2       1 <0>         0.2815
      6 C5         -3.5341   -2.1626   -0.5035 C.2       1 <0>        -0.4589
      7 C6         -2.2152   -2.7732   -0.9085 C.3       1 <0>        -0.0244
      8 C7         -1.1068   -2.2174   -0.0123 C.3       1 <0>        -0.1040
      9 C8          0.2304   -2.7115   -0.5077 C.2       1 <0>         0.4160
     10 O2          1.0582   -3.1329    0.2714 O.2       1 <0>        -0.4478
     11 C9          0.5143   -2.6743   -1.9541 C.ar      1 <0>        -0.1216
     12 C10         1.8144   -2.7986   -2.4328 C.ar      1 <0>        -0.0716
     13 C11         2.0488   -2.7641   -3.7963 C.ar      1 <0>        -0.1138
     14 C12         1.0010   -2.6072   -4.6867 C.ar      1 <0>        -0.1017
     15 C13        -0.2987   -2.4797   -4.2292 C.ar      1 <0>        -0.0809
     16 C14        -0.5544   -2.5103   -2.8619 C.ar      1 <0>        -0.1087
     17 C15        -1.9215   -2.3765   -2.3394 C.2       1 <0>         0.3791
     18 O3         -2.8030   -1.9462   -3.0518 O.2       1 <0>        -0.4166
     19 O4         -4.7715   -0.3342    0.2510 O.3       1 <0>        -0.7098
     20 C16        -2.4124    1.3396   -0.1622 C.2       1 <0>         0.3653
     21 O5         -3.4894    1.8995   -0.1340 O.2       1 <0>        -0.4236
     22 H1          1.7092    0.4670    1.0565 H         1 <0>         0.0933
     23 H2          0.2067    0.3966    2.0082 H         1 <0>         0.0517
     24 H3          0.9740   -1.1071    1.4440 H         1 <0>         0.0560
     25 H4         -4.4342   -2.7592   -0.5227 H         1 <0>         0.0970
     26 H5         -2.2662   -3.8589   -0.8258 H         1 <0>         0.0996
     27 H6         -1.2631   -2.5638    1.0093 H         1 <0>         0.1227
     28 H7          2.6369   -2.9210   -1.7437 H         1 <0>         0.1360
     29 H8          3.0581   -2.8602   -4.1687 H         1 <0>         0.1307
     30 H9          1.1996   -2.5837   -5.7480 H         1 <0>         0.1310
     31 H10        -1.1110   -2.3571   -4.9303 H         1 <0>         0.1384
     32 H11        -1.5038    1.9196   -0.2284 H         1 <0>         0.0803
@<TRIPOS>BOND
     1    1    2 1
     2    1   22 1
     3    1   23 1
     4    1   24 1
     5    2    3 1
     6    3    8 1
     7    3    4 2
     8    4    5 1
     9    4   20 1
    10    5    6 2
    11    5   19 1
    12    6    7 1
    13    6   25 1
    14    7   17 1
    15    7    8 1
    16    7   26 1
    17    8    9 1
    18    8   27 1
    19    9   10 2
    20    9   11 1
    21   11   16 ar
    22   11   12 ar
    23   12   13 ar
    24   12   28 1
    25   13   14 ar
    26   13   29 1
    27   14   15 ar
    28   14   30 1
    29   15   16 ar
    30   15   31 1
    31   16   17 1
    32   17   18 2
    33   20   21 2
    34   20   32 1
@<TRIPOS>MOLECULE
CHEMBL337689__4
   33    35     0     0     0
SMALL
USER_CHARGES

@<TRIPOS>ATOM
      1 C1          0.6159   -0.2700   -1.6861 C.3       1 <0>         0.0263
      2 O1         -0.0211   -0.0178   -0.4320 O.3       1 <0>        -0.3171
      3 C2         -1.2424   -0.5513   -0.2491 C.2       1 <0>         0.2151
      4 C3         -2.3323    0.2569   -0.0994 C.2       1 <0>        -0.2643
      5 C4         -3.6638   -0.3582    0.1187 C.2       1 <0>         0.1766
      6 C5         -3.8681   -1.6221   -0.2547 C.2       1 <0>        -0.2439
      7 C6         -2.7508   -2.4103   -0.8808 C.3       1 <0>        -0.0573
      8 C7         -1.4222   -2.0500   -0.2137 C.3       1 <0>        -0.1319
      9 C8         -1.4729   -2.4943    1.2322 C.2       1 <0>         0.4123
     10 O2         -1.0798   -1.7624    2.1152 O.2       1 <0>        -0.4172
     11 C9         -2.0079   -3.8303    1.5501 C.ar      1 <0>        -0.1193
     12 C10        -1.7685   -4.4218    2.7864 C.ar      1 <0>        -0.0681
     13 C11        -2.2878   -5.6753    3.0590 C.ar      1 <0>        -0.0957
     14 C12        -3.0437   -6.3451    2.1128 C.ar      1 <0>        -0.0969
     15 C13        -3.2910   -5.7741    0.8768 C.ar      1 <0>        -0.0660
     16 C14        -2.7744   -4.5164    0.5832 C.ar      1 <0>        -0.1250
     17 C15        -3.0075   -3.8888   -0.7182 C.2       1 <0>         0.4132
     18 O3         -3.3999   -4.5520   -1.6541 O.2       1 <0>        -0.4233
     19 O4         -4.6648    0.3580    0.6933 O.3       1 <0>        -0.4665
     20 C16        -2.1930    1.6656   -0.1513 C.2       1 <0>         0.3882
     21 O5         -3.1782    2.3747   -0.1195 O.2       1 <0>        -0.4651
     22 H1          1.5463    0.2951   -1.7412 H         1 <0>         0.1133
     23 H2          0.8315   -1.3347   -1.7764 H         1 <0>         0.0598
     24 H3         -0.0443    0.0371   -2.4972 H         1 <0>         0.0633
     25 H4         -4.8356   -2.0792   -0.1080 H         1 <0>         0.1396
     26 H5         -2.6887   -2.1690   -1.9419 H         1 <0>         0.1222
     27 H6         -0.5984   -2.5371   -0.7355 H         1 <0>         0.1402
     28 H7         -1.1803   -3.9049    3.5302 H         1 <0>         0.1429
     29 H8         -2.1013   -6.1349    4.0184 H         1 <0>         0.1396
     30 H9         -3.4443   -7.3218    2.3412 H         1 <0>         0.1396
     31 H10        -3.8818   -6.3027    0.1433 H         1 <0>         0.1442
     32 H11        -4.4166    1.2627    0.9279 H         1 <0>         0.4055
     33 H12        -1.2106    2.1090   -0.2190 H         1 <0>         0.1155
@<TRIPOS>BOND
     1    1    2 1
     2    1   22 1
     3    1   23 1
     4    1   24 1
     5    2    3 1
     6    3    8 1
     7    3    4 2
     8    4    5 1
     9    4   20 1
    10    5    6 2
    11    5   19 1
    12    6    7 1
    13    6   25 1
    14    7   17 1
    15    7    8 1
    16    7   26 1
    17    8    9 1
    18    8   27 1
    19    9   10 2
    20    9   11 1
    21   11   16 ar
    22   11   12 ar
    23   12   13 ar
    24   12   28 1
    25   13   14 ar
    26   13   29 1
    27   14   15 ar
    28   14   30 1
    29   15   16 ar
    30   15   31 1
    31   16   17 1
    32   17   18 2
    33   19   32 1
    34   20   21 2
    35   20   33 1
@<TRIPOS>MOLECULE
CHEMBL337689__5
   32    34     0     0     0
SMALL
USER_CHARGES

@<TRIPOS>ATOM
      1 C1          0.8450   -0.2569   -1.1414 C.3       1 <0>         0.0287
      2 O1          0.0027   -0.0048   -0.0149 O.3       1 <0>        -0.3256
      3 C2         -1.2291   -0.5449   -0.0403 C.2       1 <0>         0.1187
      4 C3         -2.3323    0.2569   -0.0994 C.2       1 <0>        -0.1928
      5 C4         -3.6783   -0.3651   -0.1081 C.2       1 <0>         0.2897
      6 C5         -3.8074   -1.6367   -0.4889 C.2       1 <0>        -0.4837
      7 C6         -2.5934   -2.4264   -0.8941 C.3       1 <0>        -0.0233
      8 C7         -1.4050   -2.0442   -0.0102 C.3       1 <0>        -0.1091
      9 C8         -1.7073   -2.4645    1.4120 C.2       1 <0>         0.4189
     10 O2         -1.4796   -1.7147    2.3371 O.2       1 <0>        -0.4290
     11 C9         -2.2833   -3.7992    1.6547 C.ar      1 <0>        -0.1049
     12 C10        -2.2626   -4.3679    2.9243 C.ar      1 <0>        -0.0774
     13 C11        -2.8157   -5.6207    3.1238 C.ar      1 <0>        -0.1062
     14 C12        -3.3897   -6.3125    2.0714 C.ar      1 <0>        -0.1086
     15 C13        -3.4182   -5.7643    0.8011 C.ar      1 <0>        -0.0758
     16 C14        -2.8641   -4.5077    0.5805 C.ar      1 <0>        -0.1114
     17 C15        -2.8674   -3.9039   -0.7527 C.2       1 <0>         0.4151
     18 O3         -3.0856   -4.5859   -1.7310 O.2       1 <0>        -0.4565
     19 O4         -4.7685    0.3526    0.2683 O.3       1 <0>        -0.7047
     20 C16        -2.1930    1.6656   -0.1513 C.2       1 <0>         0.3679
     21 O5         -3.1782    2.3747   -0.1195 O.2       1 <0>        -0.4277
     22 H1          1.7684    0.3133   -1.0395 H         1 <0>         0.0953
     23 H2          1.0783   -1.3206   -1.1897 H         1 <0>         0.0469
     24 H3          0.3309    0.0441   -2.0541 H         1 <0>         0.0520
     25 H4         -4.7833   -2.0990   -0.5065 H         1 <0>         0.0944
     26 H5         -2.3466   -2.2024   -1.9319 H         1 <0>         0.0795
     27 H6         -0.4997   -2.5334   -0.3699 H         1 <0>         0.1108
     28 H7         -1.8172   -3.8338    3.7506 H         1 <0>         0.1381
     29 H8         -2.7988   -6.0626    4.1091 H         1 <0>         0.1316
     30 H9         -3.8194   -7.2883    2.2432 H         1 <0>         0.1312
     31 H10        -3.8679   -6.3099   -0.0153 H         1 <0>         0.1379
     32 H11        -1.2106    2.1090   -0.2190 H         1 <0>         0.0799
@<TRIPOS>BOND
     1    1    2 1
     2    1   22 1
     3    1   23 1
     4    1   24 1
     5    2    3 1
     6    3    8 1
     7    3    4 2
     8    4    5 1
     9    4   20 1
    10    5    6 2
    11    5   19 1
    12    6    7 1
    13    6   25 1
    14    7   17 1
    15    7    8 1
    16    7   26 1
    17    8    9 1
    18    8   27 1
    19    9   10 2
    20    9   11 1
    21   11   16 ar
    22   11   12 ar
    23   12   13 ar
    24   12   28 1
    25   13   14 ar
    26   13   29 1
    27   14   15 ar
    28   14   30 1
    29   15   16 ar
    30   15   31 1
    31   16   17 1
    32   17   18 2
    33   20   21 2
    34   20   32 1
@<TRIPOS>MOLECULE
CHEMBL337689__6
   33    35     0     0     0
SMALL
USER_CHARGES

@<TRIPOS>ATOM
      1 C1          0.9450   -0.0647    0.6196 C.3       1 <0>         0.0429
      2 O1         -0.0176   -0.0223   -0.4357 O.3       1 <0>        -0.3077
      3 C2         -1.1528   -0.7213   -0.2553 C.2       1 <0>         0.2108
      4 C3         -2.3553   -0.0824   -0.1083 C.2       1 <0>        -0.2694
      5 C4         -3.5806   -0.8896    0.1105 C.2       1 <0>         0.1621
      6 C5         -3.6067   -2.1676   -0.2825 C.2       1 <0>        -0.2317
      7 C6         -2.3841   -2.7549   -0.9284 C.3       1 <0>        -0.0592
      8 C7         -1.1349   -2.2248   -0.2161 C.3       1 <0>        -0.1343
      9 C8          0.0767   -2.7774   -0.9285 C.2       1 <0>         0.4048
     10 O2          1.0055   -2.0624   -1.2383 O.2       1 <0>        -0.4067
     11 C9          0.0866   -4.2245   -1.2330 C.ar      1 <0>        -0.1271
     12 C10         1.2707   -4.8719   -1.5695 C.ar      1 <0>        -0.0669
     13 C11         1.2562   -6.2285   -1.8428 C.ar      1 <0>        -0.0984
     14 C12         0.0745   -6.9462   -1.7829 C.ar      1 <0>        -0.0951
     15 C13        -1.1144   -6.3189   -1.4535 C.ar      1 <0>        -0.0683
     16 C14        -1.1207   -4.9554   -1.1795 C.ar      1 <0>        -0.1248
     17 C15        -2.3761   -4.2615   -0.8277 C.2       1 <0>         0.4089
     18 O3         -3.3643   -4.8752   -0.4863 O.2       1 <0>        -0.4136
     19 O4         -4.6680   -0.3347    0.7061 O.3       1 <0>        -0.4664
     20 C16        -2.4280    1.3312   -0.1640 C.2       1 <0>         0.3871
     21 O5         -3.5081    1.8851   -0.1359 O.2       1 <0>        -0.4651
     22 H1          1.8530    0.4491    0.3040 H         1 <0>         0.1093
     23 H2          0.5376    0.4271    1.5029 H         1 <0>         0.0574
     24 H3          1.1786   -1.1026    0.8569 H         1 <0>         0.0539
     25 H4         -4.4928   -2.7679   -0.1382 H         1 <0>         0.1476
     26 H5         -2.3509   -2.4609   -1.9775 H         1 <0>         0.1226
     27 H6         -1.1393   -2.5627    0.8202 H         1 <0>         0.1448
     28 H7          2.1969   -4.3185   -1.6176 H         1 <0>         0.1433
     29 H8          2.1753   -6.7316   -2.1047 H         1 <0>         0.1393
     30 H9          0.0799   -8.0051   -1.9955 H         1 <0>         0.1395
     31 H10        -2.0326   -6.8857   -1.4086 H         1 <0>         0.1444
     32 H11        -4.5505    0.5927    0.9536 H         1 <0>         0.4030
     33 H12        -1.5227    1.9162   -0.2314 H         1 <0>         0.1131
@<TRIPOS>BOND
     1    1    2 1
     2    1   22 1
     3    1   23 1
     4    1   24 1
     5    2    3 1
     6    3    8 1
     7    3    4 2
     8    4    5 1
     9    4   20 1
    10    5    6 2
    11    5   19 1
    12    6    7 1
    13    6   25 1
    14    7   17 1
    15    7    8 1
    16    7   26 1
    17    8    9 1
    18    8   27 1
    19    9   10 2
    20    9   11 1
    21   11   16 ar
    22   11   12 ar
    23   12   13 ar
    24   12   28 1
    25   13   14 ar
    26   13   29 1
    27   14   15 ar
    28   14   30 1
    29   15   16 ar
    30   15   31 1
    31   16   17 1
    32   17   18 2
    33   19   32 1
    34   20   21 2
    35   20   33 1
@<TRIPOS>MOLECULE
CHEMBL337689__7
   32    34     0     0     0
SMALL
USER_CHARGES

@<TRIPOS>ATOM
      1 C1          0.7578   -0.0528    1.2087 C.3       1 <0>         0.0448
      2 O1          0.0023   -0.0043   -0.0034 O.3       1 <0>        -0.3140
      3 C2         -1.1410   -0.7122   -0.0391 C.2       1 <0>         0.1125
      4 C3         -2.3553   -0.0824   -0.1083 C.2       1 <0>        -0.1991
      5 C4         -3.5934   -0.8995   -0.1237 C.2       1 <0>         0.2776
      6 C5         -3.5372   -2.1736   -0.5260 C.2       1 <0>        -0.4733
      7 C6         -2.2126   -2.7466   -0.9432 C.3       1 <0>        -0.0213
      8 C7         -1.1185   -2.2159   -0.0105 C.3       1 <0>        -0.1107
      9 C8          0.2071   -2.7536   -0.4947 C.2       1 <0>         0.4012
     10 O2          1.1710   -2.0297   -0.6237 O.2       1 <0>        -0.4221
     11 C9          0.2839   -4.1975   -0.8049 C.ar      1 <0>        -0.1219
     12 C10         1.5147   -4.8340   -0.9255 C.ar      1 <0>        -0.0747
     13 C11         1.5612   -6.1879   -1.2086 C.ar      1 <0>        -0.1105
     14 C12         0.3942   -6.9136   -1.3715 C.ar      1 <0>        -0.1038
     15 C13        -0.8398   -6.2972   -1.2589 C.ar      1 <0>        -0.0786
     16 C14        -0.9070   -4.9365   -0.9789 C.ar      1 <0>        -0.1154
     17 C15        -2.2110   -4.2541   -0.8559 C.2       1 <0>         0.4016
     18 O3         -3.2399   -4.8775   -0.7058 O.2       1 <0>        -0.4241
     19 O4         -4.7756   -0.3575    0.2685 O.3       1 <0>        -0.7112
     20 C16        -2.4280    1.3312   -0.1640 C.2       1 <0>         0.3667
     21 O5         -3.5081    1.8851   -0.1359 O.2       1 <0>        -0.4295
     22 H1          1.7023    0.4731    1.0694 H         1 <0>         0.0915
     23 H2          0.1914    0.4233    2.0091 H         1 <0>         0.0436
     24 H3          0.9558   -1.0918    1.4720 H         1 <0>         0.0429
     25 H4         -4.4299   -2.7809   -0.5509 H         1 <0>         0.1046
     26 H5         -1.9911   -2.4419   -1.9661 H         1 <0>         0.0804
     27 H6         -1.3090   -2.5641    1.0047 H         1 <0>         0.1222
     28 H7          2.4297   -4.2743   -0.7991 H         1 <0>         0.1381
     29 H8          2.5167   -6.6825   -1.3029 H         1 <0>         0.1316
     30 H9          0.4468   -7.9702   -1.5888 H         1 <0>         0.1319
     31 H10        -1.7463   -6.8701   -1.3872 H         1 <0>         0.1395
     32 H11        -1.5227    1.9162   -0.2314 H         1 <0>         0.0797
@<TRIPOS>BOND
     1    1    2 1
     2    1   22 1
     3    1   23 1
     4    1   24 1
     5    2    3 1
     6    3    8 1
     7    3    4 2
     8    4    5 1
     9    4   20 1
    10    5    6 2
    11    5   19 1
    12    6    7 1
    13    6   25 1
    14    7   17 1
    15    7    8 1
    16    7   26 1
    17    8    9 1
    18    8   27 1
    19    9   10 2
    20    9   11 1
    21   11   16 ar
    22   11   12 ar
    23   12   13 ar
    24   12   28 1
    25   13   14 ar
    26   13   29 1
    27   14   15 ar
    28   14   30 1
    29   15   16 ar
    30   15   31 1
    31   16   17 1
    32   17   18 2
    33   20   21 2
    34   20   32 1
@<TRIPOS>MOLECULE
CHEMBL247878
   72    77     0     0     0
SMALL
USER_CHARGES

@<TRIPOS>ATOM
      1 C1         -8.4491    1.5913    1.7479 C.3       1 <0>        -0.1896
      2 C2         -8.0314    0.1644    2.1090 C.3       1 <0>        -0.0109
      3 N1         -7.6682   -0.5638    0.8860 N.4       1 <0>        -0.3853
      4 C3         -6.4828    0.0578    0.2821 C.3       1 <0>        -0.0248
      5 C4         -6.1714   -0.6281   -1.0522 C.3       1 <0>         0.0902
      6 N2         -6.0441   -2.0743   -0.8146 N.am      1 <0>        -0.6296
      7 C5         -7.1162   -2.7513   -0.0687 C.3       1 <0>         0.0689
      8 C6         -7.3831   -1.9652    1.2192 C.3       1 <0>        -0.0216
      9 C7         -4.9758   -2.7597   -1.2678 C.2       1 <0>         0.5741
     10 O1         -4.1355   -2.1983   -1.9440 O.2       1 <0>        -0.4987
     11 C8         -4.8258   -4.1915   -0.9433 C.ar      1 <0>        -0.1341
     12 C9         -5.9233   -5.0514   -1.0517 C.ar      1 <0>        -0.0970
     13 C10        -5.7850   -6.3763   -0.7520 C.ar      1 <0>        -0.0859
     14 C11        -4.5447   -6.8737   -0.3363 C.ar      1 <0>         0.0210
     15 C12        -3.4467   -6.0126   -0.2280 C.ar      1 <0>        -0.0905
     16 C13        -3.5849   -4.6890   -0.5330 C.ar      1 <0>        -0.0576
     17 C14        -4.3950   -8.3026   -0.0125 C.2       1 <0>         0.0446
     18 C15        -4.8505   -9.3399   -0.7826 C.2       1 <0>        -0.0562
     19 C16        -4.4744  -10.5628   -0.0636 C.ar      1 <0>        -0.2885
     20 C17        -4.6312  -11.9377   -0.2879 C.ar      1 <0>         0.5013
     21 N3         -4.1431  -12.7838    0.6157 N.ar      1 <0>        -0.5863
     22 C18        -3.5270  -12.3404    1.6958 C.ar      1 <0>         0.3846
     23 N4         -3.3588  -11.0589    1.9442 N.ar      1 <0>        -0.5501
     24 C19        -3.8120  -10.1356    1.0996 C.ar      1 <0>         0.3395
     25 O2         -3.7833   -8.7922    1.0852 O.3       1 <0>        -0.1647
     26 N5         -5.2767  -12.4025   -1.4186 N.pl3     1 <0>        -0.6870
     27 C20        -5.4301  -13.8434   -1.6343 C.3       1 <0>         0.1132
     28 C21        -6.1740  -14.0858   -2.9491 C.3       1 <0>         0.0659
     29 H1         -7.1161  -13.5375   -2.9474 H         1 <0>         0.0856
     30 C22        -6.4469  -15.5951   -3.1259 C.3       1 <0>        -0.1469
     31 C23        -6.2018  -15.7985   -4.6459 C.3       1 <0>        -0.1560
     32 C24        -5.0618  -14.7801   -4.8989 C.3       1 <0>         0.0485
     33 O3         -5.3650  -13.6585   -4.0512 O.3       1 <0>        -0.3760
     34 C25        -5.5718   -9.2468   -2.0716 C.ar      1 <0>        -0.0358
     35 C26        -6.9039   -9.6528   -2.1600 C.ar      1 <0>        -0.1125
     36 C27        -7.5708   -9.5630   -3.3644 C.ar      1 <0>        -0.1136
     37 C28        -6.9216   -9.0716   -4.4831 C.ar      1 <0>        -0.1062
     38 C29        -5.6009   -8.6674   -4.4020 C.ar      1 <0>        -0.1104
     39 C30        -4.9244   -8.7472   -3.2022 C.ar      1 <0>        -0.0932
     40 H2         -8.7186    2.1316    2.6554 H         1 <0>         0.1078
     41 H3         -7.6198    2.0990    1.2555 H         1 <0>         0.0808
     42 H4         -9.3065    1.5597    1.0757 H         1 <0>         0.0814
     43 H5         -7.1739    0.1959    2.7812 H         1 <0>         0.1295
     44 H6         -8.8607   -0.3434    2.6014 H         1 <0>         0.1327
     45 H7         -6.6755    1.1167    0.1101 H         1 <0>         0.1465
     46 H8         -5.6322   -0.0525    0.9547 H         1 <0>         0.1344
     47 H9         -6.9817   -0.4427   -1.7572 H         1 <0>         0.0970
     48 H10        -5.2359   -0.2393   -1.4543 H         1 <0>         0.1372
     49 H11        -8.0220   -2.7803   -0.6744 H         1 <0>         0.1004
     50 H12        -6.8054   -3.7661    0.1795 H         1 <0>         0.1429
     51 H13        -6.5052   -2.0142    1.8634 H         1 <0>         0.1350
     52 H14        -8.2391   -2.3968    1.7378 H         1 <0>         0.1456
     53 H15        -6.8805   -4.6674   -1.3722 H         1 <0>         0.1373
     54 H16        -6.6327   -7.0403   -0.8355 H         1 <0>         0.1396
     55 H17        -2.4893   -6.3959    0.0928 H         1 <0>         0.1426
     56 H18        -2.7367   -4.0252   -0.4534 H         1 <0>         0.1408
     57 H19        -3.1453  -13.0595    2.4055 H         1 <0>         0.2143
     58 H20        -5.6281  -11.7746   -2.0692 H         1 <0>         0.4168
     59 H21        -4.4464  -14.3104   -1.6820 H         1 <0>         0.0792
     60 H22        -5.9980  -14.2756   -0.8105 H         1 <0>         0.0848
     61 H23        -5.7464  -16.1874   -2.5372 H         1 <0>         0.0848
     62 H24        -7.4769  -15.8364   -2.8633 H         1 <0>         0.0884
     63 H25        -5.8738  -16.8161   -4.8581 H         1 <0>         0.0883
     64 H26        -7.0902  -15.5454   -5.2244 H         1 <0>         0.0806
     65 H27        -4.0998  -15.2132   -4.6248 H         1 <0>         0.0632
     66 H28        -5.0547  -14.4721   -5.9444 H         1 <0>         0.0881
     67 H29        -7.4116  -10.0368   -1.2875 H         1 <0>         0.1234
     68 H30        -8.6017   -9.8772   -3.4342 H         1 <0>         0.1278
     69 H31        -7.4480   -9.0037   -5.4237 H         1 <0>         0.1266
     70 H32        -5.0996   -8.2851   -5.2789 H         1 <0>         0.1278
     71 H33        -3.8947   -8.4275   -3.1393 H         1 <0>         0.1229
     72 H34        -8.4356   -0.5243    0.2321 H         1 <0>         0.4232
@<TRIPOS>BOND
     1    1    2 1
     2    1   40 1
     3    1   41 1
     4    1   42 1
     5    2    3 1
     6    2   43 1
     7    2   44 1
     8    3    8 1
     9    3    4 1
    10    3   72 1
    11    4    5 1
    12    4   45 1
    13    4   46 1
    14    5    6 1
    15    5   47 1
    16    5   48 1
    17    6    7 1
    18    6    9 am
    19    7    8 1
    20    7   49 1
    21    7   50 1
    22    8   51 1
    23    8   52 1
    24    9   10 2
    25    9   11 1
    26   11   16 ar
    27   11   12 ar
    28   12   13 ar
    29   12   53 1
    30   13   14 ar
    31   13   54 1
    32   14   15 ar
    33   14   17 1
    34   15   16 ar
    35   15   55 1
    36   16   56 1
    37   17   25 1
    38   17   18 2
    39   18   19 1
    40   18   34 1
    41   19   24 ar
    42   19   20 ar
    43   20   21 ar
    44   20   26 1
    45   21   22 ar
    46   22   23 ar
    47   22   57 1
    48   23   24 ar
    49   24   25 1
    50   26   27 1
    51   26   58 1
    52   27   28 1
    53   27   59 1
    54   27   60 1
    55   28   29 1
    56   28   33 1
    57   28   30 1
    58   30   31 1
    59   30   61 1
    60   30   62 1
    61   31   32 1
    62   31   63 1
    63   31   64 1
    64   32   33 1
    65   32   65 1
    66   32   66 1
    67   34   39 ar
    68   34   35 ar
    69   35   36 ar
    70   35   67 1
    71   36   37 ar
    72   36   68 1
    73   37   38 ar
    74   37   69 1
    75   38   39 ar
    76   38   70 1
    77   39   71 1
@<TRIPOS>MOLECULE
CHEMBL247878__1
   71    76     0     0     0
SMALL
USER_CHARGES

@<TRIPOS>ATOM
      1 C1         -8.4787    1.8614    1.7067 C.3       1 <0>        -0.1507
      2 C2         -8.0055    0.4896    2.1917 C.3       1 <0>         0.0504
      3 N1         -7.6269   -0.3345    1.0361 N.3       1 <0>        -0.5387
      4 C3         -6.4542    0.2258    0.3514 C.3       1 <0>         0.0374
      5 C4         -6.2025   -0.5533   -0.9439 C.3       1 <0>         0.1170
      6 N2         -6.1073   -1.9843   -0.6175 N.am      1 <0>        -0.6072
      7 C5         -7.1812   -2.5876    0.1863 C.3       1 <0>         0.0971
      8 C6         -7.3943   -1.7284    1.4371 C.3       1 <0>         0.0391
      9 C7         -5.0639   -2.7232   -1.0440 C.2       1 <0>         0.5607
     10 O1         -4.2223   -2.2262   -1.7673 O.2       1 <0>        -0.5290
     11 C8         -4.9429   -4.1354   -0.6330 C.ar      1 <0>        -0.1128
     12 C9         -6.0615   -4.9737   -0.6743 C.ar      1 <0>        -0.0909
     13 C10        -5.9500   -6.2805   -0.2947 C.ar      1 <0>        -0.0849
     14 C11        -4.7160   -6.7809    0.1360 C.ar      1 <0>        -0.0012
     15 C12        -3.5969   -5.9415    0.1771 C.ar      1 <0>        -0.0918
     16 C13        -3.7084   -4.6363   -0.2079 C.ar      1 <0>        -0.0650
     17 C14        -4.5952   -8.1902    0.5461 C.2       1 <0>         0.0665
     18 C15        -5.0854   -9.2619   -0.1524 C.2       1 <0>        -0.0720
     19 C16        -4.7280  -10.4467    0.6365 C.ar      1 <0>        -0.2818
     20 C17        -4.9199  -11.8286    0.5000 C.ar      1 <0>         0.4989
     21 N3         -4.4393  -12.6288    1.4483 N.ar      1 <0>        -0.5885
     22 C18        -3.7981  -12.1345    2.4911 C.ar      1 <0>         0.3773
     23 N4         -3.5966  -10.8445    2.6573 N.ar      1 <0>        -0.5484
     24 C19        -4.0398   -9.9646    1.7626 C.ar      1 <0>         0.3334
     25 O2         -3.9799   -8.6256    1.6644 O.3       1 <0>        -0.1640
     26 N5         -5.5917  -12.3467   -0.5916 N.pl3     1 <0>        -0.6895
     27 C20        -5.7816  -13.7941   -0.7155 C.3       1 <0>         0.1152
     28 C21        -6.5491  -14.0994   -2.0033 C.3       1 <0>         0.0655
     29 H1         -7.4780  -13.5294   -2.0240 H         1 <0>         0.0864
     30 C22        -6.8595  -15.6096   -2.0825 C.3       1 <0>        -0.1465
     31 C23        -6.6403  -15.9125   -3.5899 C.3       1 <0>        -0.1559
     32 C24        -5.4804  -14.9395   -3.9198 C.3       1 <0>         0.0486
     33 O3         -5.7457  -13.7606   -3.1397 O.3       1 <0>        -0.3742
     34 C25        -5.8221   -9.2312   -1.4357 C.ar      1 <0>        -0.0298
     35 C26        -7.1645   -9.6092   -1.4821 C.ar      1 <0>        -0.1128
     36 C27        -7.8458   -9.5780   -2.6814 C.ar      1 <0>        -0.1143
     37 C28        -7.2007   -9.1730   -3.8365 C.ar      1 <0>        -0.1081
     38 C29        -5.8698   -8.7970   -3.7971 C.ar      1 <0>        -0.1108
     39 C30        -5.1788   -8.8187   -2.6032 C.ar      1 <0>        -0.0923
     40 H2         -8.7595    2.4729    2.5641 H         1 <0>         0.0608
     41 H3         -7.6731    2.3511    1.1595 H         1 <0>         0.0551
     42 H4         -9.3405    1.7375    1.0509 H         1 <0>         0.0646
     43 H5         -7.1437    0.6135    2.8475 H         1 <0>         0.0339
     44 H6         -8.8110   -0.0000    2.7389 H         1 <0>         0.0769
     45 H7         -6.6371    1.2741    0.1157 H         1 <0>         0.0934
     46 H8         -5.5816    0.1452    0.9997 H         1 <0>         0.0392
     47 H9         -7.0286   -0.3898   -1.6359 H         1 <0>         0.0788
     48 H10        -5.2695   -0.2183   -1.3973 H         1 <0>         0.0977
     49 H11        -8.1013   -2.6196   -0.3971 H         1 <0>         0.0824
     50 H12        -6.8953   -3.5976    0.4802 H         1 <0>         0.1017
     51 H13        -6.5087   -1.7818    2.0703 H         1 <0>         0.0403
     52 H14        -8.2590   -2.0973    1.9888 H         1 <0>         0.0901
     53 H15        -7.0138   -4.5872   -1.0063 H         1 <0>         0.1399
     54 H16        -6.8140   -6.9277   -0.3263 H         1 <0>         0.1358
     55 H17        -2.6444   -6.3272    0.5093 H         1 <0>         0.1374
     56 H18        -2.8439   -3.9894   -0.1800 H         1 <0>         0.1382
     57 H19        -3.4234  -12.8173    3.2393 H         1 <0>         0.2117
     58 H20        -5.9373  -11.7519   -1.2755 H         1 <0>         0.4174
     59 H21        -4.8098  -14.2867   -0.7462 H         1 <0>         0.0772
     60 H22        -6.3480  -14.1608    0.1406 H         1 <0>         0.0830
     61 H23        -6.1649  -16.1812   -1.4670 H         1 <0>         0.0841
     62 H24        -7.8911  -15.8093   -1.7928 H         1 <0>         0.0877
     63 H25        -6.3390  -16.9489   -3.7426 H         1 <0>         0.0868
     64 H26        -7.5305  -15.6743   -4.1720 H         1 <0>         0.0803
     65 H27        -4.5251  -15.3779   -3.6312 H         1 <0>         0.0622
     66 H28        -5.4807  -14.6970   -4.9825 H         1 <0>         0.0874
     67 H29        -7.6690   -9.9259   -0.5812 H         1 <0>         0.1225
     68 H30        -8.8847   -9.8707   -2.7188 H         1 <0>         0.1264
     69 H31        -7.7383   -9.1506   -4.7729 H         1 <0>         0.1250
     70 H32        -5.3718   -8.4822   -4.7023 H         1 <0>         0.1267
     71 H33        -4.1411   -8.5210   -2.5730 H         1 <0>         0.1229
@<TRIPOS>BOND
     1    1    2 1
     2    1   40 1
     3    1   41 1
     4    1   42 1
     5    2    3 1
     6    2   43 1
     7    2   44 1
     8    3    8 1
     9    3    4 1
    10    4    5 1
    11    4   45 1
    12    4   46 1
    13    5    6 1
    14    5   47 1
    15    5   48 1
    16    6    7 1
    17    6    9 am
    18    7    8 1
    19    7   49 1
    20    7   50 1
    21    8   51 1
    22    8   52 1
    23    9   10 2
    24    9   11 1
    25   11   16 ar
    26   11   12 ar
    27   12   13 ar
    28   12   53 1
    29   13   14 ar
    30   13   54 1
    31   14   15 ar
    32   14   17 1
    33   15   16 ar
    34   15   55 1
    35   16   56 1
    36   17   25 1
    37   17   18 2
    38   18   19 1
    39   18   34 1
    40   19   24 ar
    41   19   20 ar
    42   20   21 ar
    43   20   26 1
    44   21   22 ar
    45   22   23 ar
    46   22   57 1
    47   23   24 ar
    48   24   25 1
    49   26   27 1
    50   26   58 1
    51   27   28 1
    52   27   59 1
    53   27   60 1
    54   28   29 1
    55   28   33 1
    56   28   30 1
    57   30   31 1
    58   30   61 1
    59   30   62 1
    60   31   32 1
    61   31   63 1
    62   31   64 1
    63   32   33 1
    64   32   65 1
    65   32   66 1
    66   34   39 ar
    67   34   35 ar
    68   35   36 ar
    69   35   67 1
    70   36   37 ar
    71   36   68 1
    72   37   38 ar
    73   37   69 1
    74   38   39 ar
    75   38   70 1
    76   39   71 1
@<TRIPOS>MOLECULE
CHEMBL399212
   76    81     0     0     0
SMALL
USER_CHARGES

@<TRIPOS>ATOM
      1 C1         -1.4024    0.4180    2.7441 C.3       1 <0>         0.0210
      2 O1         -1.0098   -0.4083    1.6463 O.3       1 <0>        -0.3085
      3 C2         -1.9653   -0.7074    0.7260 C.ar      1 <0>         0.1138
      4 C3         -3.2472   -0.2119    0.8748 C.ar      1 <0>        -0.1452
      5 C4         -4.2266   -0.5212   -0.0729 C.ar      1 <0>         0.0033
      6 C5         -3.9050   -1.3300   -1.1662 C.ar      1 <0>        -0.0769
      7 C6         -2.6240   -1.8205   -1.3076 C.ar      1 <0>        -0.1624
      8 C7         -1.6507   -1.5084   -0.3695 C.ar      1 <0>         0.0977
      9 O2         -0.3879   -1.9901   -0.5168 O.3       1 <0>        -0.3143
     10 C8         -0.1340   -2.8050   -1.6629 C.3       1 <0>         0.0224
     11 C9          1.3297   -3.2503   -1.6578 C.3       1 <0>        -0.0002
     12 N1          1.5764   -4.1086   -0.4915 N.4       1 <0>        -0.3846
     13 C10         3.0106   -4.4074   -0.4003 C.3       1 <0>        -0.0067
     14 C11         3.2843   -5.2339    0.8581 C.3       1 <0>        -0.1468
     15 C12         2.4923   -6.5425    0.7850 C.3       1 <0>        -0.1386
     16 C13         1.0051   -6.2189    0.6153 C.3       1 <0>        -0.1454
     17 C14         0.8159   -5.3559   -0.6341 C.3       1 <0>        -0.0130
     18 C15        -5.5961    0.0041    0.0807 C.2       1 <0>         0.0589
     19 C16        -6.7432   -0.7304   -0.0518 C.2       1 <0>        -0.0670
     20 C17        -7.8462    0.2093    0.1877 C.ar      1 <0>        -0.2859
     21 C18        -9.2444    0.1190    0.2052 C.ar      1 <0>         0.4998
     22 N2         -9.9444    1.2194    0.4692 N.ar      1 <0>        -0.5858
     23 C19        -9.3374    2.3672    0.7086 C.ar      1 <0>         0.3828
     24 N3         -8.0275    2.4948    0.7013 N.ar      1 <0>        -0.5489
     25 C20        -7.2425    1.4504    0.4480 C.ar      1 <0>         0.3373
     26 O3         -5.9108    1.2807    0.3791 O.3       1 <0>        -0.1662
     27 N4         -9.8808   -1.0833   -0.0460 N.pl3     1 <0>        -0.6884
     28 C21       -11.3438   -1.1565   -0.0229 C.3       1 <0>         0.1137
     29 C22       -11.7877   -2.5880   -0.3304 C.3       1 <0>         0.0662
     30 H1        -11.3444   -2.9188   -1.2697 H         1 <0>         0.0856
     31 C23       -13.3273   -2.6495   -0.4276 C.3       1 <0>        -0.1471
     32 C24       -13.6475   -4.0021    0.2650 C.3       1 <0>        -0.1560
     33 C25       -12.5429   -4.0453    1.3508 C.3       1 <0>         0.0487
     34 O4        -11.3840   -3.4606    0.7313 O.3       1 <0>        -0.3763
     35 C26        -6.8501   -2.1718   -0.3707 C.ar      1 <0>        -0.0290
     36 C27        -7.3914   -2.5813   -1.5898 C.ar      1 <0>        -0.1114
     37 C28        -7.4878   -3.9264   -1.8812 C.ar      1 <0>        -0.1127
     38 C29        -7.0491   -4.8684   -0.9677 C.ar      1 <0>        -0.1086
     39 C30        -6.5114   -4.4687    0.2429 C.ar      1 <0>        -0.1132
     40 C31        -6.4046   -3.1266    0.5441 C.ar      1 <0>        -0.0943
     41 H2         -0.5480    0.5790    3.4015 H         1 <0>         0.1077
     42 H3         -1.7572    1.3776    2.3679 H         1 <0>         0.0622
     43 H4         -2.2015   -0.0721    3.3003 H         1 <0>         0.0599
     44 H5         -3.4913    0.4125    1.7215 H         1 <0>         0.1472
     45 H6         -4.6598   -1.5712   -1.9001 H         1 <0>         0.1386
     46 H7         -2.3768   -2.4454   -2.1529 H         1 <0>         0.1419
     47 H8         -0.7807   -3.6820   -1.6356 H         1 <0>         0.0867
     48 H9         -0.3364   -2.2323   -2.5680 H         1 <0>         0.1103
     49 H10         1.5433   -3.8071   -2.5703 H         1 <0>         0.1491
     50 H11         1.9760   -2.3740   -1.6072 H         1 <0>         0.1432
     51 H12         3.3203   -4.9720   -1.2797 H         1 <0>         0.1288
     52 H13         3.5731   -3.4751   -0.3515 H         1 <0>         0.1311
     53 H14         4.3494   -5.4562    0.9231 H         1 <0>         0.1127
     54 H15         2.9752   -4.6700    1.7383 H         1 <0>         0.0882
     55 H16         2.8369   -7.1301   -0.0660 H         1 <0>         0.0819
     56 H17         2.6393   -7.1094    1.7043 H         1 <0>         0.0942
     57 H18         0.4411   -7.1453    0.5066 H         1 <0>         0.1118
     58 H19         0.6487   -5.6755    1.4904 H         1 <0>         0.0879
     59 H20        -0.2419   -5.1238   -0.7580 H         1 <0>         0.1273
     60 H21         1.1724   -5.9003   -1.5085 H         1 <0>         0.1300
     61 H22        -9.9410    3.2378    0.9188 H         1 <0>         0.2141
     62 H23        -9.3584   -1.8778   -0.2374 H         1 <0>         0.4161
     63 H24       -11.7066   -0.8676    0.9635 H         1 <0>         0.0787
     64 H25       -11.7533   -0.4800   -0.7731 H         1 <0>         0.0846
     65 H26       -13.7835   -1.8197    0.1122 H         1 <0>         0.0849
     66 H27       -13.6501   -2.6607   -1.4686 H         1 <0>         0.0886
     67 H28       -14.6402   -3.9878    0.7149 H         1 <0>         0.0882
     68 H29       -13.5460   -4.8341   -0.4319 H         1 <0>         0.0805
     69 H30       -12.8437   -3.4605    2.2200 H         1 <0>         0.0630
     70 H31       -12.3369   -5.0759    1.6401 H         1 <0>         0.0876
     71 H32        -7.7345   -1.8470   -2.3036 H         1 <0>         0.1240
     72 H33        -7.9068   -4.2447   -2.8243 H         1 <0>         0.1278
     73 H34        -7.1270   -5.9201   -1.2004 H         1 <0>         0.1254
     74 H35        -6.1711   -5.2088    0.9519 H         1 <0>         0.1254
     75 H36        -5.9810   -2.8157    1.4877 H         1 <0>         0.1214
     76 H37         1.2808   -3.6296    0.3459 H         1 <0>         0.4309
@<TRIPOS>BOND
     1    1    2 1
     2    1   41 1
     3    1   42 1
     4    1   43 1
     5    2    3 1
     6    3    8 ar
     7    3    4 ar
     8    4    5 ar
     9    4   44 1
    10    5    6 ar
    11    5   18 1
    12    6    7 ar
    13    6   45 1
    14    7    8 ar
    15    7   46 1
    16    8    9 1
    17    9   10 1
    18   10   11 1
    19   10   47 1
    20   10   48 1
    21   11   12 1
    22   11   49 1
    23   11   50 1
    24   12   17 1
    25   12   13 1
    26   12   76 1
    27   13   14 1
    28   13   51 1
    29   13   52 1
    30   14   15 1
    31   14   53 1
    32   14   54 1
    33   15   16 1
    34   15   55 1
    35   15   56 1
    36   16   17 1
    37   16   57 1
    38   16   58 1
    39   17   59 1
    40   17   60 1
    41   18   26 1
    42   18   19 2
    43   19   20 1
    44   19   35 1
    45   20   25 ar
    46   20   21 ar
    47   21   22 ar
    48   21   27 1
    49   22   23 ar
    50   23   24 ar
    51   23   61 1
    52   24   25 ar
    53   25   26 1
    54   27   28 1
    55   27   62 1
    56   28   29 1
    57   28   63 1
    58   28   64 1
    59   29   30 1
    60   29   34 1
    61   29   31 1
    62   31   32 1
    63   31   65 1
    64   31   66 1
    65   32   33 1
    66   32   67 1
    67   32   68 1
    68   33   34 1
    69   33   69 1
    70   33   70 1
    71   35   40 ar
    72   35   36 ar
    73   36   37 ar
    74   36   71 1
    75   37   38 ar
    76   37   72 1
    77   38   39 ar
    78   38   73 1
    79   39   40 ar
    80   39   74 1
    81   40   75 1
@<TRIPOS>MOLECULE
CHEMBL247677
   70    75     0     0     0
SMALL
USER_CHARGES

@<TRIPOS>ATOM
      1 C1         -6.0398   -5.7270    0.0525 C.3       1 <0>        -0.0459
      2 N1         -4.7691   -5.0188    0.2572 N.4       1 <0>        -0.3885
      3 C2         -3.7630   -5.5387   -0.6782 C.3       1 <0>        -0.0023
      4 C3         -2.4444   -4.7883   -0.4782 C.3       1 <0>         0.0247
      5 N2         -1.9882   -4.9661    0.9076 N.3       1 <0>        -0.5338
      6 C4         -2.9964   -4.4728    1.8564 C.3       1 <0>         0.0185
      7 C5         -4.3104   -5.2257    1.6372 C.3       1 <0>        -0.0021
      8 C6         -0.6937   -4.3063    1.1244 C.3       1 <0>         0.0961
      9 C7         -0.1425   -4.7107    2.4674 C.ar      1 <0>        -0.0820
     10 C8         -0.4553   -3.9677    3.5922 C.ar      1 <0>        -0.1152
     11 C9          0.0455   -4.3319    4.8246 C.ar      1 <0>        -0.0790
     12 C10         0.8706   -5.4540    4.9357 C.ar      1 <0>        -0.0077
     13 C11         1.1822   -6.1993    3.7957 C.ar      1 <0>        -0.0875
     14 C12         0.6695   -5.8265    2.5708 C.ar      1 <0>        -0.0918
     15 C13         1.4106   -5.8496    6.2502 C.2       1 <0>         0.0624
     16 C14         0.6839   -5.9468    7.4055 C.2       1 <0>        -0.0749
     17 C15         1.6372   -6.3682    8.4400 C.ar      1 <0>        -0.2849
     18 C16         1.5593   -6.6467    9.8112 C.ar      1 <0>         0.4988
     19 N3          2.6704   -7.0143   10.4442 N.ar      1 <0>        -0.5862
     20 C17         3.8171   -7.1142    9.7975 C.ar      1 <0>         0.3818
     21 N4          3.9333   -6.8614    8.5112 N.ar      1 <0>        -0.5480
     22 C18         2.8777   -6.4874    7.7921 C.ar      1 <0>         0.3361
     23 O1          2.6950   -6.1767    6.4972 O.3       1 <0>        -0.1653
     24 N5          0.3584   -6.5418   10.4891 N.pl3     1 <0>        -0.6893
     25 C19         0.2983   -6.8375   11.9227 C.3       1 <0>         0.1139
     26 C20        -1.1347   -6.6460   12.4233 C.3       1 <0>         0.0664
     27 H1         -1.4866   -5.6475   12.1639 H         1 <0>         0.0854
     28 C21        -1.1846   -6.8375   13.9544 C.3       1 <0>        -0.1472
     29 C22        -2.5215   -7.6040   14.1473 C.3       1 <0>        -0.1560
     30 C23        -2.5542   -8.4665   12.8605 C.3       1 <0>         0.0487
     31 O2         -1.9911   -7.6313   11.8339 O.3       1 <0>        -0.3765
     32 C24        -0.7623   -5.6817    7.5771 C.ar      1 <0>        -0.0240
     33 C25        -1.1895   -4.5916    8.3359 C.ar      1 <0>        -0.1109
     34 C26        -2.5389   -4.3500    8.4921 C.ar      1 <0>        -0.1126
     35 C27        -3.4676   -5.1862    7.8984 C.ar      1 <0>        -0.1107
     36 C28        -3.0503   -6.2688    7.1446 C.ar      1 <0>        -0.1149
     37 C29        -1.7038   -6.5176    6.9758 C.ar      1 <0>        -0.0943
     38 H2         -6.7869   -5.3404    0.7457 H         1 <0>         0.1241
     39 H3         -6.3804   -5.5735   -0.9715 H         1 <0>         0.1244
     40 H4         -5.8949   -6.7924    0.2314 H         1 <0>         0.1231
     41 H5         -3.6082   -6.6014   -0.4916 H         1 <0>         0.1378
     42 H6         -4.1104   -5.3963   -1.7015 H         1 <0>         0.1363
     43 H7         -1.6934   -5.1841   -1.1620 H         1 <0>         0.1248
     44 H8         -2.5957   -3.7275   -0.6780 H         1 <0>         0.0616
     45 H9         -2.6481   -4.6383    2.8759 H         1 <0>         0.1275
     46 H10        -3.1567   -3.4068    1.6951 H         1 <0>         0.0610
     47 H11        -5.0637   -4.8514    2.3304 H         1 <0>         0.1353
     48 H12        -4.1528   -6.2900    1.8119 H         1 <0>         0.1375
     49 H13         0.0024   -4.6055    0.3409 H         1 <0>         0.0994
     50 H14        -0.8281   -3.2250    1.0975 H         1 <0>         0.0582
     51 H15        -1.0929   -3.1004    3.5047 H         1 <0>         0.1251
     52 H16        -0.1991   -3.7509    5.7015 H         1 <0>         0.1304
     53 H17         1.8196   -7.0676    3.8741 H         1 <0>         0.1331
     54 H18         0.9058   -6.4043    1.6894 H         1 <0>         0.1315
     55 H19         4.6966   -7.4155   10.3472 H         1 <0>         0.2139
     56 H20        -0.4441   -6.2725   10.0154 H         1 <0>         0.4156
     57 H21         0.6085   -7.8682   12.0945 H         1 <0>         0.0785
     58 H22         0.9644   -6.1631   12.4610 H         1 <0>         0.0844
     59 H23        -0.3411   -7.4361   14.2982 H         1 <0>         0.0851
     60 H24        -1.2123   -5.8749   14.4651 H         1 <0>         0.0886
     61 H25        -2.4902   -8.2300   15.0391 H         1 <0>         0.0883
     62 H26        -3.3669   -6.9169   14.1813 H         1 <0>         0.0803
     63 H27        -1.9509   -9.3648   12.9917 H         1 <0>         0.0631
     64 H28        -3.5810   -8.7328   12.6096 H         1 <0>         0.0873
     65 H29        -0.4655   -3.9386    8.8005 H         1 <0>         0.1237
     66 H30        -2.8708   -3.5065    9.0792 H         1 <0>         0.1274
     67 H31        -4.5227   -4.9932    8.0241 H         1 <0>         0.1241
     68 H32        -3.7802   -6.9178    6.6837 H         1 <0>         0.1236
     69 H33        -1.3793   -7.3601    6.3832 H         1 <0>         0.1215
     70 H34        -4.9035   -4.0326    0.0920 H         1 <0>         0.4222
@<TRIPOS>BOND
     1    1    2 1
     2    1   38 1
     3    1   39 1
     4    1   40 1
     5    2    7 1
     6    2    3 1
     7    2   70 1
     8    3    4 1
     9    3   41 1
    10    3   42 1
    11    4    5 1
    12    4   43 1
    13    4   44 1
    14    5    6 1
    15    5    8 1
    16    6    7 1
    17    6   45 1
    18    6   46 1
    19    7   47 1
    20    7   48 1
    21    8    9 1
    22    8   49 1
    23    8   50 1
    24    9   14 ar
    25    9   10 ar
    26   10   11 ar
    27   10   51 1
    28   11   12 ar
    29   11   52 1
    30   12   13 ar
    31   12   15 1
    32   13   14 ar
    33   13   53 1
    34   14   54 1
    35   15   23 1
    36   15   16 2
    37   16   17 1
    38   16   32 1
    39   17   22 ar
    40   17   18 ar
    41   18   19 ar
    42   18   24 1
    43   19   20 ar
    44   20   21 ar
    45   20   55 1
    46   21   22 ar
    47   22   23 1
    48   24   25 1
    49   24   56 1
    50   25   26 1
    51   25   57 1
    52   25   58 1
    53   26   27 1
    54   26   31 1
    55   26   28 1
    56   28   29 1
    57   28   59 1
    58   28   60 1
    59   29   30 1
    60   29   61 1
    61   29   62 1
    62   30   31 1
    63   30   63 1
    64   30   64 1
    65   32   37 ar
    66   32   33 ar
    67   33   34 ar
    68   33   65 1
    69   34   35 ar
    70   34   66 1
    71   35   36 ar
    72   35   67 1
    73   36   37 ar
    74   36   68 1
    75   37   69 1
@<TRIPOS>MOLECULE
CHEMBL247677__1
   70    75     0     0     0
SMALL
USER_CHARGES

@<TRIPOS>ATOM
      1 C1         -5.9963   -5.6992   -0.0752 C.3       1 <0>         0.0195
      2 N1         -4.6976   -5.0538    0.1587 N.3       1 <0>        -0.5430
      3 C2         -3.7328   -5.4166   -0.8891 C.3       1 <0>         0.0243
      4 C3         -2.4150   -4.6789   -0.6425 C.3       1 <0>        -0.0026
      5 N2         -1.8890   -5.0444    0.6793 N.4       1 <0>        -0.3855
      6 C4         -2.8525   -4.6536    1.7169 C.3       1 <0>        -0.0080
      7 C5         -4.1739   -5.3912    1.4899 C.3       1 <0>         0.0266
      8 C6         -0.6149   -4.3499    0.9081 C.3       1 <0>         0.0445
      9 C7         -0.0144   -4.8176    2.2088 C.ar      1 <0>        -0.1531
     10 C8         -0.3255   -4.1607    3.3864 C.ar      1 <0>        -0.0917
     11 C9          0.2203   -4.5831    4.5805 C.ar      1 <0>        -0.0805
     12 C10         1.0893   -5.6771    4.5992 C.ar      1 <0>         0.0261
     13 C11         1.3988   -6.3354    3.4063 C.ar      1 <0>        -0.0891
     14 C12         0.8410   -5.9053    2.2205 C.ar      1 <0>        -0.0889
     15 C13         1.6775   -6.1346    5.8723 C.2       1 <0>         0.0398
     16 C14         0.9851   -6.3336    7.0356 C.2       1 <0>        -0.0554
     17 C15         1.9799   -6.7829    8.0179 C.ar      1 <0>        -0.2902
     18 C16         1.9480   -7.1513    9.3696 C.ar      1 <0>         0.5017
     19 N3          3.0881   -7.5151    9.9513 N.ar      1 <0>        -0.5853
     20 C17         4.2206   -7.5288    9.2728 C.ar      1 <0>         0.3872
     21 N4          4.2939   -7.1900    8.0032 N.ar      1 <0>        -0.5493
     22 C18         3.2068   -6.8121    7.3348 C.ar      1 <0>         0.3423
     23 O1          2.9792   -6.4266    6.0675 O.3       1 <0>        -0.1646
     24 N5          0.7620   -7.1368   10.0809 N.pl3     1 <0>        -0.6870
     25 C19         0.7501   -7.5256   11.4933 C.3       1 <0>         0.1128
     26 C20        -0.6757   -7.4223   12.0387 C.3       1 <0>         0.0662
     27 H1         -1.0711   -6.4237   11.8529 H         1 <0>         0.0856
     28 C21        -0.6787   -7.7131   13.5549 C.3       1 <0>        -0.1472
     29 C22        -1.9806   -8.5418   13.7290 C.3       1 <0>        -0.1561
     30 C23        -2.0145   -9.3210   12.3901 C.3       1 <0>         0.0487
     31 O2         -1.5096   -8.4005   11.4069 O.3       1 <0>        -0.3771
     32 C24        -0.4650   -6.1365    7.2578 C.ar      1 <0>        -0.0339
     33 C25        -0.9128   -5.1146    8.0956 C.ar      1 <0>        -0.1098
     34 C26        -2.2658   -4.9361    8.2986 C.ar      1 <0>        -0.1106
     35 C27        -3.1777   -5.7681    7.6739 C.ar      1 <0>        -0.1062
     36 C28        -2.7400   -6.7833    6.8419 C.ar      1 <0>        -0.1140
     37 C29        -1.3900   -6.9682    6.6258 C.ar      1 <0>        -0.0970
     38 H2         -6.7100   -5.3625    0.6767 H         1 <0>         0.0841
     39 H3         -6.3610   -5.4328   -1.0673 H         1 <0>         0.0839
     40 H4         -5.8817   -6.7811   -0.0087 H         1 <0>         0.0392
     41 H5         -3.5575   -6.4921   -0.8653 H         1 <0>         0.0601
     42 H6         -4.1310   -5.1341   -1.8636 H         1 <0>         0.1242
     43 H7         -1.6934   -4.9575   -1.4104 H         1 <0>         0.1368
     44 H8         -2.5883   -3.6034   -0.6799 H         1 <0>         0.1388
     45 H9         -2.4552   -4.9135    2.6980 H         1 <0>         0.1360
     46 H10        -3.0235   -3.5782    1.6674 H         1 <0>         0.1378
     47 H11        -4.8939   -5.0901    2.2509 H         1 <0>         0.1229
     48 H12        -4.0058   -6.4663    1.5528 H         1 <0>         0.0596
     49 H13         0.0714   -4.5711    0.0907 H         1 <0>         0.1397
     50 H14        -0.7902   -3.2751    0.9546 H         1 <0>         0.1388
     51 H15        -0.9970   -3.3150    3.3703 H         1 <0>         0.1387
     52 H16        -0.0231   -4.0693    5.4987 H         1 <0>         0.1406
     53 H17         2.0700   -7.1815    3.4133 H         1 <0>         0.1419
     54 H18         1.0759   -6.4159    1.2982 H         1 <0>         0.1381
     55 H19         5.1247   -7.8302    9.7810 H         1 <0>         0.2157
     56 H20        -0.0620   -6.8691    9.6446 H         1 <0>         0.4159
     57 H21         1.1028   -8.5523   11.5905 H         1 <0>         0.0796
     58 H22         1.4042   -6.8616   12.0585 H         1 <0>         0.0856
     59 H23         0.1952   -8.2992   13.8393 H         1 <0>         0.0852
     60 H24        -0.7290   -6.7869   14.1274 H         1 <0>         0.0890
     61 H25        -1.9030   -9.2218   14.5773 H         1 <0>         0.0887
     62 H26        -2.8499   -7.8917   13.8273 H         1 <0>         0.0808
     63 H27        -1.3748  -10.2016   12.4485 H         1 <0>         0.0633
     64 H28        -3.0367   -9.6104   12.1465 H         1 <0>         0.0879
     65 H29        -0.2019   -4.4650    8.5844 H         1 <0>         0.1249
     66 H30        -2.6137   -4.1455    8.9469 H         1 <0>         0.1296
     67 H31        -4.2357   -5.6248    7.8366 H         1 <0>         0.1270
     68 H32        -3.4568   -7.4295    6.3571 H         1 <0>         0.1258
     69 H33        -1.0497   -7.7580    5.9724 H         1 <0>         0.1209
     70 H34        -1.7397   -6.0415    0.7177 H         1 <0>         0.4199
@<TRIPOS>BOND
     1    1    2 1
     2    1   38 1
     3    1   39 1
     4    1   40 1
     5    2    7 1
     6    2    3 1
     7    3    4 1
     8    3   41 1
     9    3   42 1
    10    4    5 1
    11    4   43 1
    12    4   44 1
    13    5    6 1
    14    5    8 1
    15    5   70 1
    16    6    7 1
    17    6   45 1
    18    6   46 1
    19    7   47 1
    20    7   48 1
    21    8    9 1
    22    8   49 1
    23    8   50 1
    24    9   14 ar
    25    9   10 ar
    26   10   11 ar
    27   10   51 1
    28   11   12 ar
    29   11   52 1
    30   12   13 ar
    31   12   15 1
    32   13   14 ar
    33   13   53 1
    34   14   54 1
    35   15   23 1
    36   15   16 2
    37   16   17 1
    38   16   32 1
    39   17   22 ar
    40   17   18 ar
    41   18   19 ar
    42   18   24 1
    43   19   20 ar
    44   20   21 ar
    45   20   55 1
    46   21   22 ar
    47   22   23 1
    48   24   25 1
    49   24   56 1
    50   25   26 1
    51   25   57 1
    52   25   58 1
    53   26   27 1
    54   26   31 1
    55   26   28 1
    56   28   29 1
    57   28   59 1
    58   28   60 1
    59   29   30 1
    60   29   61 1
    61   29   62 1
    62   30   31 1
    63   30   63 1
    64   30   64 1
    65   32   37 ar
    66   32   33 ar
    67   33   34 ar
    68   33   65 1
    69   34   35 ar
    70   34   66 1
    71   35   36 ar
    72   35   67 1
    73   36   37 ar
    74   36   68 1
    75   37   69 1
@<TRIPOS>MOLECULE
CHEMBL477172
   65    70     0     0     0
SMALL
USER_CHARGES

@<TRIPOS>ATOM
      1 C1         -4.0167   -0.3949    7.0537 C.3       1 <0>        -0.1145
      2 C2         -4.6926   -0.8519    5.7867 C.ar      1 <0>        -0.0778
      3 C3         -5.8270   -1.6377    5.8529 C.ar      1 <0>        -0.1068
      4 C4         -6.4484   -2.0574    4.6913 C.ar      1 <0>        -0.1034
      5 C5         -5.9372   -1.6925    3.4590 C.ar      1 <0>        -0.1076
      6 C6         -4.8030   -0.9067    3.3853 C.ar      1 <0>        -0.0179
      7 C7         -4.1791   -0.4789    4.5518 C.ar      1 <0>         0.1618
      8 N1         -3.0342    0.3213    4.4814 N.pl3     1 <0>        -0.6411
      9 C8         -1.9189   -0.1282    3.8050 C.2       1 <0>         0.5664
     10 N2         -1.8415   -1.2583    3.1484 N.2       1 <0>        -0.5083
     11 C9         -0.6033   -1.3874    2.6027 C.ar      1 <0>         0.0948
     12 C10         0.0024   -2.3755    1.8226 C.ar      1 <0>        -0.0769
     13 C11         1.3069   -2.2178    1.4106 C.ar      1 <0>        -0.1118
     14 C12         2.0245   -1.0850    1.7643 C.ar      1 <0>        -0.1119
     15 C13         1.4406   -0.1002    2.5348 C.ar      1 <0>        -0.0996
     16 C14         0.1284   -0.2424    2.9578 C.ar      1 <0>         0.0415
     17 N3         -0.7288    0.5436    3.7149 N.pl3     1 <0>        -0.4610
     18 C15        -0.4331    1.7827    4.2800 C.ar      1 <0>         0.4267
     19 C16         0.1550    2.7840    3.5157 C.ar      1 <0>        -0.2675
     20 C17         0.4307    4.0042    4.1268 C.ar      1 <0>         0.4552
     21 N4          0.1233    4.1668    5.4120 N.ar      1 <0>        -0.5612
     22 C18        -0.4335    3.1926    6.1020 C.ar      1 <0>         0.3655
     23 N5         -0.7145    2.0261    5.5576 N.ar      1 <0>        -0.5631
     24 N6          1.0176    5.0356    3.4071 N.pl3     1 <0>        -0.6241
     25 C19         1.4121    6.2013    4.0573 C.ar      1 <0>         0.3546
     26 C20         1.5634    6.2017    5.4401 C.ar      1 <0>        -0.1785
     27 C21         1.9565    7.3669    6.0734 C.ar      1 <0>        -0.0171
     28 C22         2.1858    8.4969    5.2994 C.ar      1 <0>        -0.1732
     29 C23         2.0163    8.4250    3.9313 C.ar      1 <0>         0.1279
     30 N7          1.6453    7.2982    3.3536 N.ar      1 <0>        -0.5169
     31 C24         2.1313    7.4094    7.5696 C.3       1 <0>         0.0939
     32 N8          3.5402    7.1635    7.9051 N.3       1 <0>        -0.5305
     33 C25         3.9231    5.7796    7.5897 C.3       1 <0>         0.0168
     34 C26         5.4099    5.5842    7.8980 C.3       1 <0>         0.0636
     35 O1          5.6551    5.9150    9.2676 O.3       1 <0>        -0.3841
     36 C27         5.2942    7.2560    9.6095 C.3       1 <0>         0.0629
     37 C28         3.8062    7.4682    9.3185 C.3       1 <0>         0.0175
     38 Cl1        -4.1617   -0.4489    1.8384 Cl        1 <0>        -0.0489
     39 H1         -4.3743    0.6005    7.3175 H         1 <0>         0.0727
     40 H2         -4.2490   -1.0900    7.8605 H         1 <0>         0.0731
     41 H3         -2.9381   -0.3644    6.8995 H         1 <0>         0.0719
     42 H4         -6.2287   -1.9249    6.8134 H         1 <0>         0.1338
     43 H5         -7.3348   -2.6719    4.7463 H         1 <0>         0.1351
     44 H6         -6.4248   -2.0223    2.5535 H         1 <0>         0.1368
     45 H7         -3.0243    1.1923    4.9082 H         1 <0>         0.4218
     46 H8         -0.5506   -3.2604    1.5438 H         1 <0>         0.1327
     47 H9          1.7747   -2.9821    0.8079 H         1 <0>         0.1322
     48 H10         3.0469   -0.9730    1.4350 H         1 <0>         0.1316
     49 H11         2.0049    0.7793    2.8075 H         1 <0>         0.1186
     50 H12         0.3922    2.6195    2.4750 H         1 <0>         0.1548
     51 H13        -0.6706    3.3563    7.1428 H         1 <0>         0.2113
     52 H14         1.1528    4.9441    2.4510 H         1 <0>         0.4285
     53 H15         1.3762    5.3046    6.0115 H         1 <0>         0.1730
     54 H16         2.4934    9.4225    5.7631 H         1 <0>         0.1372
     55 H17         2.1932    9.3015    3.3255 H         1 <0>         0.1616
     56 H18         1.8349    8.3898    7.9424 H         1 <0>         0.0915
     57 H19         1.5089    6.6422    8.0301 H         1 <0>         0.0523
     58 H20         3.3325    5.0916    8.1946 H         1 <0>         0.0446
     59 H21         3.7417    5.5836    6.5329 H         1 <0>         0.0850
     60 H22         5.6851    4.5447    7.7197 H         1 <0>         0.0978
     61 H23         6.0034    6.2339    7.2548 H         1 <0>         0.0601
     62 H24         5.4856    7.4255   10.6691 H         1 <0>         0.1004
     63 H25         5.8843    7.9543    9.0161 H         1 <0>         0.0610
     64 H26         3.5395    8.5050    9.5237 H         1 <0>         0.0894
     65 H27         3.2137    6.8073    9.9511 H         1 <0>         0.0459
@<TRIPOS>BOND
     1    1    2 1
     2    1   39 1
     3    1   40 1
     4    1   41 1
     5    2    7 ar
     6    2    3 ar
     7    3    4 ar
     8    3   42 1
     9    4    5 ar
    10    4   43 1
    11    5    6 ar
    12    5   44 1
    13    6    7 ar
    14    6   38 1
    15    7    8 1
    16    8    9 1
    17    8   45 1
    18    9   17 1
    19    9   10 2
    20   10   11 1
    21   11   16 ar
    22   11   12 ar
    23   12   13 ar
    24   12   46 1
    25   13   14 ar
    26   13   47 1
    27   14   15 ar
    28   14   48 1
    29   15   16 ar
    30   15   49 1
    31   16   17 1
    32   17   18 1
    33   18   23 ar
    34   18   19 ar
    35   19   20 ar
    36   19   50 1
    37   20   21 ar
    38   20   24 1
    39   21   22 ar
    40   22   23 ar
    41   22   51 1
    42   24   25 1
    43   24   52 1
    44   25   30 ar
    45   25   26 ar
    46   26   27 ar
    47   26   53 1
    48   27   28 ar
    49   27   31 1
    50   28   29 ar
    51   28   54 1
    52   29   30 ar
    53   29   55 1
    54   31   32 1
    55   31   56 1
    56   31   57 1
    57   32   37 1
    58   32   33 1
    59   33   34 1
    60   33   58 1
    61   33   59 1
    62   34   35 1
    63   34   60 1
    64   34   61 1
    65   35   36 1
    66   36   37 1
    67   36   62 1
    68   36   63 1
    69   37   64 1
    70   37   65 1
@<TRIPOS>MOLECULE
CHEMBL477172__1
   66    71     0     0     0
SMALL
USER_CHARGES

@<TRIPOS>ATOM
      1 C1         -4.5016   -0.0617    5.9243 C.3       1 <0>        -0.1265
      2 C2         -5.0896   -0.3587    4.5689 C.ar      1 <0>        -0.0407
      3 C3         -6.2614   -1.0834    4.4673 C.ar      1 <0>        -0.0976
      4 C4         -6.8023   -1.3562    3.2245 C.ar      1 <0>        -0.0690
      5 C5         -6.1729   -0.9049    2.0786 C.ar      1 <0>        -0.0966
      6 C6         -5.0006   -0.1796    2.1727 C.ar      1 <0>        -0.0472
      7 C7         -4.4573    0.1007    3.4214 C.ar      1 <0>         0.0773
      8 N1         -3.2740    0.8396    3.5211 N.pl3     1 <0>        -0.6069
      9 C8         -2.0818    0.2940    3.0917 C.cat     1 <0>         0.6701
     10 N2         -1.9604   -0.8452    2.4580 N.pl3     1 <0>        -0.5252
     11 C9         -0.6497   -1.0802    2.1844 C.ar      1 <0>         0.0683
     12 C10         0.0238   -2.1222    1.5423 C.ar      1 <0>        -0.0730
     13 C11         1.3942   -2.0753    1.4156 C.ar      1 <0>        -0.0784
     14 C12         2.1114   -1.0011    1.9209 C.ar      1 <0>        -0.0689
     15 C13         1.4607    0.0357    2.5581 C.ar      1 <0>        -0.0846
     16 C14         0.0817    0.0051    2.6941 C.ar      1 <0>         0.0904
     17 N3         -0.8485    0.8658    3.2592 N.pl3     1 <0>        -0.4167
     18 C15        -0.5783    2.0823    3.8830 C.ar      1 <0>         0.3876
     19 C16         0.1245    3.0774    3.2132 C.ar      1 <0>        -0.2465
     20 C17         0.3691    4.2749    3.8800 C.ar      1 <0>         0.4649
     21 N4         -0.0758    4.4228    5.1260 N.ar      1 <0>        -0.5418
     22 C18        -0.7383    3.4552    5.7262 C.ar      1 <0>         0.3785
     23 N5         -0.9940    2.3102    5.1264 N.ar      1 <0>        -0.5582
     24 N6          1.0667    5.2991    3.2551 N.pl3     1 <0>        -0.6163
     25 C19         1.4526    6.4222    3.9810 C.ar      1 <0>         0.3419
     26 C20         1.5885    6.3365    5.3628 C.ar      1 <0>        -0.1629
     27 C21         1.9731    7.4602    6.0718 C.ar      1 <0>        -0.0135
     28 C22         2.2097    8.6363    5.3723 C.ar      1 <0>        -0.1603
     29 C23         2.0554    8.6498    4.0006 C.ar      1 <0>         0.1307
     30 N7          1.6922    7.5609    3.3497 N.ar      1 <0>        -0.5087
     31 C24         2.1313    7.4094    7.5696 C.3       1 <0>         0.0917
     32 N8          3.5402    7.1635    7.9051 N.3       1 <0>        -0.5311
     33 C25         3.9231    5.7796    7.5897 C.3       1 <0>         0.0182
     34 C26         5.4099    5.5842    7.8980 C.3       1 <0>         0.0629
     35 O1          5.6551    5.9150    9.2676 O.3       1 <0>        -0.3829
     36 C27         5.2942    7.2560    9.6095 C.3       1 <0>         0.0620
     37 C28         3.8062    7.4682    9.3185 C.3       1 <0>         0.0177
     38 Cl1        -4.2109    0.3866    0.7342 Cl        1 <0>        -0.0465
     39 H1         -4.8311    0.9231    6.2554 H         1 <0>         0.0885
     40 H2         -4.8348   -0.8153    6.6379 H         1 <0>         0.0867
     41 H3         -3.4137   -0.0782    5.8599 H         1 <0>         0.0719
     42 H4         -6.7555   -1.4377    5.3600 H         1 <0>         0.1510
     43 H5         -7.7183   -1.9233    3.1483 H         1 <0>         0.1525
     44 H6         -6.5978   -1.1201    1.1093 H         1 <0>         0.1534
     45 H7         -3.2915    1.7356    3.8923 H         1 <0>         0.4467
     46 H8         -0.5284   -2.9618    1.1469 H         1 <0>         0.1544
     47 H9          1.9145   -2.8812    0.9195 H         1 <0>         0.1581
     48 H10         3.1859   -0.9760    1.8152 H         1 <0>         0.1572
     49 H11         2.0248    0.8691    2.9501 H         1 <0>         0.1468
     50 H12         0.4721    2.9253    2.2021 H         1 <0>         0.1631
     51 H13        -1.0859    3.6065    6.7374 H         1 <0>         0.2214
     52 H14         1.2853    5.2323    2.3124 H         1 <0>         0.4316
     53 H15         1.3961    5.4054    5.8750 H         1 <0>         0.1544
     54 H16         2.5110    9.5314    5.8962 H         1 <0>         0.1426
     55 H17         2.2380    9.5624    3.4526 H         1 <0>         0.1667
     56 H18         1.8157    8.3595    8.0007 H         1 <0>         0.0944
     57 H19         1.5161    6.6051    7.9729 H         1 <0>         0.0527
     58 H20         3.3325    5.0916    8.1946 H         1 <0>         0.0435
     59 H21         3.7417    5.5836    6.5329 H         1 <0>         0.0817
     60 H22         5.6851    4.5447    7.7197 H         1 <0>         0.0974
     61 H23         6.0034    6.2339    7.2548 H         1 <0>         0.0610
     62 H24         5.4856    7.4255   10.6691 H         1 <0>         0.1028
     63 H25         5.8843    7.9543    9.0161 H         1 <0>         0.0627
     64 H26         3.5395    8.5050    9.5237 H         1 <0>         0.0915
     65 H27         3.2137    6.8073    9.9511 H         1 <0>         0.0467
     66 H28        -2.6946   -1.4326    2.2197 H         1 <0>         0.4564
@<TRIPOS>BOND
     1    1    2 1
     2    1   39 1
     3    1   40 1
     4    1   41 1
     5    2    7 ar
     6    2    3 ar
     7    3    4 ar
     8    3   42 1
     9    4    5 ar
    10    4   43 1
    11    5    6 ar
    12    5   44 1
    13    6    7 ar
    14    6   38 1
    15    7    8 1
    16    8    9 1
    17    8   45 1
    18    9   17 1
    19    9   10 2
    20   10   11 1
    21   10   66 1
    22   11   16 ar
    23   11   12 ar
    24   12   13 ar
    25   12   46 1
    26   13   14 ar
    27   13   47 1
    28   14   15 ar
    29   14   48 1
    30   15   16 ar
    31   15   49 1
    32   16   17 1
    33   17   18 1
    34   18   23 ar
    35   18   19 ar
    36   19   20 ar
    37   19   50 1
    38   20   21 ar
    39   20   24 1
    40   21   22 ar
    41   22   23 ar
    42   22   51 1
    43   24   25 1
    44   24   52 1
    45   25   30 ar
    46   25   26 ar
    47   26   27 ar
    48   26   53 1
    49   27   28 ar
    50   27   31 1
    51   28   29 ar
    52   28   54 1
    53   29   30 ar
    54   29   55 1
    55   31   32 1
    56   31   56 1
    57   31   57 1
    58   32   37 1
    59   32   33 1
    60   33   34 1
    61   33   58 1
    62   33   59 1
    63   34   35 1
    64   34   60 1
    65   34   61 1
    66   35   36 1
    67   36   37 1
    68   36   62 1
    69   36   63 1
    70   37   64 1
    71   37   65 1
@<TRIPOS>MOLECULE
CHEMBL473250
   68    73     0     0     0
SMALL
USER_CHARGES

@<TRIPOS>ATOM
      1 C1         -4.1675   -0.2464    8.1322 C.3       1 <0>        -0.1145
      2 C2         -4.9109   -0.8168    6.9519 C.ar      1 <0>        -0.0776
      3 C3         -6.0569   -1.5621    7.1511 C.ar      1 <0>        -0.1068
      4 C4         -6.7402   -2.0856    6.0692 C.ar      1 <0>        -0.1035
      5 C5         -6.2795   -1.8653    4.7838 C.ar      1 <0>        -0.1077
      6 C6         -5.1340   -1.1209    4.5771 C.ar      1 <0>        -0.0179
      7 C7         -4.4479   -0.5888    5.6629 C.ar      1 <0>         0.1616
      8 N1         -3.2911    0.1701    5.4576 N.pl3     1 <0>        -0.6407
      9 C8         -2.2182   -0.3761    4.7839 C.2       1 <0>         0.5667
     10 N2         -2.1946   -1.5707    4.2487 N.2       1 <0>        -0.5086
     11 C9         -0.9862   -1.7878    3.6652 C.ar      1 <0>         0.0951
     12 C10        -0.4380   -2.8676    2.9686 C.ar      1 <0>        -0.0770
     13 C11         0.8486   -2.7871    2.4846 C.ar      1 <0>        -0.1117
     14 C12         1.6049   -1.6417    2.6833 C.ar      1 <0>        -0.1122
     15 C13         1.0779   -0.5668    3.3697 C.ar      1 <0>        -0.0996
     16 C14        -0.2157   -0.6305    3.8634 C.ar      1 <0>         0.0409
     17 N3         -1.0202    0.2523    4.5698 N.pl3     1 <0>        -0.4606
     18 C15        -0.6732    1.5362    4.9861 C.ar      1 <0>         0.4272
     19 C16        -0.0728    2.4257    4.1024 C.ar      1 <0>        -0.2692
     20 C17         0.2547    3.6968    4.5668 C.ar      1 <0>         0.4555
     21 N4         -0.0170    4.0121    5.8314 N.ar      1 <0>        -0.5611
     22 C18        -0.5871    3.1401    6.6376 C.ar      1 <0>         0.3670
     23 N5         -0.9168    1.9301    6.2336 N.ar      1 <0>        -0.5648
     24 N6          0.8559    4.6212    3.7241 N.pl3     1 <0>        -0.6243
     25 C19         1.3009    5.8387    4.2310 C.ar      1 <0>         0.3518
     26 C20         1.4853    5.9887    5.6016 C.ar      1 <0>        -0.1794
     27 C21         1.9283    7.2039    6.0917 C.ar      1 <0>        -0.0497
     28 C22         2.1729    8.2322    5.1911 C.ar      1 <0>        -0.1573
     29 C23         1.9685    8.0136    3.8435 C.ar      1 <0>         0.1316
     30 N7          1.5500    6.8419    3.4039 N.ar      1 <0>        -0.5153
     31 C24         2.6561    9.5733    5.6800 C.3       1 <0>        -0.0683
     32 C25         4.1830    9.6263    5.5977 C.3       1 <0>         0.0605
     33 N8          4.6617   10.8847    6.1852 N.3       1 <0>        -0.5375
     34 C26         4.2344   12.0381    5.3800 C.3       1 <0>         0.0131
     35 C27         4.7022   13.3285    6.0583 C.3       1 <0>         0.0623
     36 O1          6.1214   13.2836    6.2296 O.3       1 <0>        -0.3854
     37 C28         6.5723   12.1730    7.0096 C.3       1 <0>         0.0630
     38 C29         6.1235   10.8709    6.3410 C.3       1 <0>         0.0171
     39 Cl1        -4.5561   -0.8447    2.9636 Cl        1 <0>        -0.0491
     40 H1         -4.4925    0.7795    8.3050 H         1 <0>         0.0730
     41 H2         -4.3753   -0.8474    9.0174 H         1 <0>         0.0731
     42 H3         -3.0969   -0.2588    7.9277 H         1 <0>         0.0719
     43 H4         -6.4194   -1.7364    8.1534 H         1 <0>         0.1338
     44 H5         -7.6357   -2.6681    6.2281 H         1 <0>         0.1351
     45 H6         -6.8155   -2.2760    3.9408 H         1 <0>         0.1367
     46 H7         -3.2433    1.0806    5.7888 H         1 <0>         0.4224
     47 H8         -1.0213   -3.7628    2.8106 H         1 <0>         0.1327
     48 H9          1.2720   -3.6223    1.9464 H         1 <0>         0.1321
     49 H10         2.6128   -1.5908    2.2987 H         1 <0>         0.1315
     50 H11         1.6721    0.3221    3.5218 H         1 <0>         0.1189
     51 H12         0.1346    2.1382    3.0822 H         1 <0>         0.1546
     52 H13        -0.7944    3.4269    7.6580 H         1 <0>         0.2133
     53 H14         0.9661    4.4188    2.7819 H         1 <0>         0.4281
     54 H15         1.2849    5.1675    6.2739 H         1 <0>         0.1752
     55 H16         2.0802    7.3498    7.1510 H         1 <0>         0.1386
     56 H17         2.1571    8.8106    3.1396 H         1 <0>         0.1570
     57 H18         2.2312   10.3614    5.0582 H         1 <0>         0.0745
     58 H19         2.3427    9.7176    6.7140 H         1 <0>         0.0850
     59 H20         4.6058    8.7849    6.1468 H         1 <0>         0.0776
     60 H21         4.4927    9.5715    4.5541 H         1 <0>         0.0378
     61 H22         4.6739   11.9701    4.3849 H         1 <0>         0.0441
     62 H23         3.1475   12.0429    5.2991 H         1 <0>         0.0895
     63 H24         4.4376   14.1834    5.4360 H         1 <0>         0.0988
     64 H25         4.2210   13.4231    7.0317 H         1 <0>         0.0607
     65 H26         7.6602   12.1922    7.0754 H         1 <0>         0.0990
     66 H27         6.1454   12.2340    8.0107 H         1 <0>         0.0608
     67 H28         6.4154   10.0237    6.9615 H         1 <0>         0.0869
     68 H29         6.5931   10.7842    5.3612 H         1 <0>         0.0437
@<TRIPOS>BOND
     1    1    2 1
     2    1   40 1
     3    1   41 1
     4    1   42 1
     5    2    7 ar
     6    2    3 ar
     7    3    4 ar
     8    3   43 1
     9    4    5 ar
    10    4   44 1
    11    5    6 ar
    12    5   45 1
    13    6    7 ar
    14    6   39 1
    15    7    8 1
    16    8    9 1
    17    8   46 1
    18    9   17 1
    19    9   10 2
    20   10   11 1
    21   11   16 ar
    22   11   12 ar
    23   12   13 ar
    24   12   47 1
    25   13   14 ar
    26   13   48 1
    27   14   15 ar
    28   14   49 1
    29   15   16 ar
    30   15   50 1
    31   16   17 1
    32   17   18 1
    33   18   23 ar
    34   18   19 ar
    35   19   20 ar
    36   19   51 1
    37   20   21 ar
    38   20   24 1
    39   21   22 ar
    40   22   23 ar
    41   22   52 1
    42   24   25 1
    43   24   53 1
    44   25   30 ar
    45   25   26 ar
    46   26   27 ar
    47   26   54 1
    48   27   28 ar
    49   27   55 1
    50   28   29 ar
    51   28   31 1
    52   29   30 ar
    53   29   56 1
    54   31   32 1
    55   31   57 1
    56   31   58 1
    57   32   33 1
    58   32   59 1
    59   32   60 1
    60   33   38 1
    61   33   34 1
    62   34   35 1
    63   34   61 1
    64   34   62 1
    65   35   36 1
    66   35   63 1
    67   35   64 1
    68   36   37 1
    69   37   38 1
    70   37   65 1
    71   37   66 1
    72   38   67 1
    73   38   68 1
@<TRIPOS>MOLECULE
CHEMBL473250__1
   69    74     0     0     0
SMALL
USER_CHARGES

@<TRIPOS>ATOM
      1 C1         -4.1687   -0.2509    8.1111 C.3       1 <0>        -0.1138
      2 C2         -4.9127   -0.8183    6.9297 C.ar      1 <0>        -0.0779
      3 C3         -6.0588   -1.5640    7.1276 C.ar      1 <0>        -0.1061
      4 C4         -6.7426   -2.0848    6.0448 C.ar      1 <0>        -0.1011
      5 C5         -6.2824   -1.8615    4.7597 C.ar      1 <0>        -0.1066
      6 C6         -5.1369   -1.1167    4.5544 C.ar      1 <0>        -0.0176
      7 C7         -4.4502   -0.5874    5.6412 C.ar      1 <0>         0.1583
      8 N1         -3.2934    0.1719    5.4372 N.pl3     1 <0>        -0.6400
      9 C8         -2.2208   -0.3729    4.7618 C.2       1 <0>         0.5662
     10 N2         -2.1976   -1.5662    4.2237 N.2       1 <0>        -0.5047
     11 C9         -0.9895   -1.7821    3.6392 C.ar      1 <0>         0.0967
     12 C10        -0.4418   -2.8603    2.9398 C.ar      1 <0>        -0.0744
     13 C11         0.8446   -2.7788    2.4553 C.ar      1 <0>        -0.1098
     14 C12         1.6012   -1.6339    2.6564 C.ar      1 <0>        -0.1106
     15 C13         1.0746   -0.5606    3.3456 C.ar      1 <0>        -0.1015
     16 C14        -0.2188   -0.6253    3.8398 C.ar      1 <0>         0.0381
     17 N3         -1.0228    0.2559    4.5486 N.pl3     1 <0>        -0.4630
     18 C15        -0.6755    1.5388    4.9678 C.ar      1 <0>         0.4342
     19 C16        -0.0745    2.4300    4.0862 C.ar      1 <0>        -0.2637
     20 C17         0.2533    3.6999    4.5534 C.ar      1 <0>         0.4489
     21 N4         -0.0187    4.0126    5.8186 N.ar      1 <0>        -0.5659
     22 C18        -0.5894    3.1391    6.6227 C.ar      1 <0>         0.3677
     23 N5         -0.9194    1.9301    6.2160 N.ar      1 <0>        -0.5577
     24 N6          0.8552    4.6259    3.7129 N.pl3     1 <0>        -0.6260
     25 C19         1.3003    5.8422    4.2226 C.ar      1 <0>         0.3812
     26 C20         1.4848    5.9890    5.5935 C.ar      1 <0>        -0.1819
     27 C21         1.9280    7.2030    6.0864 C.ar      1 <0>        -0.0409
     28 C22         2.1727    8.2334    5.1881 C.ar      1 <0>        -0.1947
     29 C23         1.9682    8.0179    3.8400 C.ar      1 <0>         0.1468
     30 N7          1.5495    6.8473    3.3977 N.ar      1 <0>        -0.5153
     31 C24         2.6561    9.5733    5.6800 C.3       1 <0>        -0.0882
     32 C25         4.1830    9.6263    5.5977 C.3       1 <0>        -0.0078
     33 N8          4.6617   10.8847    6.1852 N.4       1 <0>        -0.3858
     34 C26         4.1902   12.0150    5.3733 C.3       1 <0>        -0.0489
     35 C27         4.6901   13.3249    5.9876 C.3       1 <0>         0.0358
     36 O1          6.1179   13.2942    6.0664 O.3       1 <0>        -0.3565
     37 C28         6.6270   12.1958    6.8281 C.3       1 <0>         0.0357
     38 C29         6.1308   10.8837    6.2154 C.3       1 <0>        -0.0436
     39 Cl1        -4.5596   -0.8367    2.9413 Cl        1 <0>        -0.0498
     40 H1         -4.4936    0.7746    8.2866 H         1 <0>         0.0721
     41 H2         -4.3763   -0.8541    8.9950 H         1 <0>         0.0739
     42 H3         -3.0982   -0.2629    7.9062 H         1 <0>         0.0706
     43 H4         -6.4208   -1.7406    8.1297 H         1 <0>         0.1348
     44 H5         -7.6380   -2.6676    6.2027 H         1 <0>         0.1366
     45 H6         -6.8188   -2.2701    3.9160 H         1 <0>         0.1379
     46 H7         -3.2453    1.0815    5.7706 H         1 <0>         0.4210
     47 H8         -1.0253   -3.7550    2.7799 H         1 <0>         0.1348
     48 H9          1.2677   -3.6128    1.9151 H         1 <0>         0.1341
     49 H10         2.6089   -1.5823    2.2715 H         1 <0>         0.1322
     50 H11         1.6690    0.3279    3.4995 H         1 <0>         0.1171
     51 H12         0.1331    2.1445    3.0655 H         1 <0>         0.1575
     52 H13        -0.7970    3.4237    7.6437 H         1 <0>         0.2149
     53 H14         0.9656    4.4254    2.7703 H         1 <0>         0.4318
     54 H15         1.2843    5.1664    6.2639 H         1 <0>         0.1816
     55 H16         2.0799    7.3465    7.1460 H         1 <0>         0.1395
     56 H17         2.1569    8.8165    3.1379 H         1 <0>         0.1590
     57 H18         2.2313   10.3628    5.0601 H         1 <0>         0.0971
     58 H19         2.3428    9.7153    6.7143 H         1 <0>         0.0956
     59 H20         4.6058    8.7849    6.1468 H         1 <0>         0.1336
     60 H21         4.4927    9.5715    4.5541 H         1 <0>         0.1326
     61 H22         4.5754   11.9192    4.3582 H         1 <0>         0.1401
     62 H23         3.1005   12.0167    5.3504 H         1 <0>         0.1440
     63 H24         4.3780   14.1622    5.3633 H         1 <0>         0.1421
     64 H25         4.2727   13.4405    6.9879 H         1 <0>         0.0814
     65 H26         7.7167   12.2157    6.8121 H         1 <0>         0.1420
     66 H27         6.2760   12.2726    7.8572 H         1 <0>         0.0814
     67 H28         6.4815   10.0456    6.8175 H         1 <0>         0.1425
     68 H29         6.5152   10.7883    5.1999 H         1 <0>         0.1391
     69 H30         4.3059   10.9739    7.1252 H         1 <0>         0.4229
@<TRIPOS>BOND
     1    1    2 1
     2    1   40 1
     3    1   41 1
     4    1   42 1
     5    2    7 ar
     6    2    3 ar
     7    3    4 ar
     8    3   43 1
     9    4    5 ar
    10    4   44 1
    11    5    6 ar
    12    5   45 1
    13    6    7 ar
    14    6   39 1
    15    7    8 1
    16    8    9 1
    17    8   46 1
    18    9   17 1
    19    9   10 2
    20   10   11 1
    21   11   16 ar
    22   11   12 ar
    23   12   13 ar
    24   12   47 1
    25   13   14 ar
    26   13   48 1
    27   14   15 ar
    28   14   49 1
    29   15   16 ar
    30   15   50 1
    31   16   17 1
    32   17   18 1
    33   18   23 ar
    34   18   19 ar
    35   19   20 ar
    36   19   51 1
    37   20   21 ar
    38   20   24 1
    39   21   22 ar
    40   22   23 ar
    41   22   52 1
    42   24   25 1
    43   24   53 1
    44   25   30 ar
    45   25   26 ar
    46   26   27 ar
    47   26   54 1
    48   27   28 ar
    49   27   55 1
    50   28   29 ar
    51   28   31 1
    52   29   30 ar
    53   29   56 1
    54   31   32 1
    55   31   57 1
    56   31   58 1
    57   32   33 1
    58   32   59 1
    59   32   60 1
    60   33   38 1
    61   33   34 1
    62   33   69 1
    63   34   35 1
    64   34   61 1
    65   34   62 1
    66   35   36 1
    67   35   63 1
    68   35   64 1
    69   36   37 1
    70   37   38 1
    71   37   65 1
    72   37   66 1
    73   38   67 1
    74   38   68 1
@<TRIPOS>MOLECULE
CHEMBL447107
   72    77     0     0     0
SMALL
USER_CHARGES

@<TRIPOS>ATOM
      1 C1         -3.3017   -0.4646    7.7097 C.3       1 <0>        -0.1142
      2 C2         -3.9761   -1.0659    6.5036 C.ar      1 <0>        -0.0775
      3 C3         -5.0586   -1.9090    6.6653 C.ar      1 <0>        -0.1073
      4 C4         -5.6786   -2.4610    5.5597 C.ar      1 <0>        -0.1031
      5 C5         -5.2180   -2.1716    4.2880 C.ar      1 <0>        -0.1079
      6 C6         -4.1359   -1.3293    4.1189 C.ar      1 <0>        -0.0173
      7 C7         -3.5138   -0.7686    5.2286 C.ar      1 <0>         0.1610
      8 N1         -2.4217    0.0891    5.0613 N.pl3     1 <0>        -0.6407
      9 C8         -1.2929   -0.3518    4.4019 C.2       1 <0>         0.5663
     10 N2         -1.1665   -1.5202    3.8247 N.2       1 <0>        -0.5078
     11 C9          0.0704   -1.6265    3.2711 C.ar      1 <0>         0.0951
     12 C10         0.7158   -2.6362    2.5530 C.ar      1 <0>        -0.0768
     13 C11         2.0060   -2.4441    2.1118 C.ar      1 <0>        -0.1113
     14 C12         2.6701   -1.2553    2.3749 C.ar      1 <0>        -0.1117
     15 C13         2.0463   -0.2484    3.0829 C.ar      1 <0>        -0.0997
     16 C14         0.7478   -0.4248    3.5346 C.ar      1 <0>         0.0405
     17 N3         -0.1388    0.3694    4.2479 N.pl3     1 <0>        -0.4603
     18 C15         0.1013    1.6578    4.7216 C.ar      1 <0>         0.4278
     19 C16         0.6755    2.6173    3.8953 C.ar      1 <0>        -0.2662
     20 C17         0.8946    3.8898    4.4156 C.ar      1 <0>         0.4555
     21 N4          0.5487    4.1403    5.6766 N.ar      1 <0>        -0.5571
     22 C18         0.0068    3.2033    6.4274 C.ar      1 <0>         0.3643
     23 N5         -0.2207    1.9890    5.9695 N.ar      1 <0>        -0.5624
     24 N6          1.4656    4.8829    3.6313 N.pl3     1 <0>        -0.6189
     25 C19         1.8087    6.1033    4.1975 C.ar      1 <0>         0.4275
     26 C20         1.9062    6.2379    5.5784 C.ar      1 <0>        -0.3156
     27 C21         2.2540    7.4823    6.0966 C.ar      1 <0>         0.4573
     28 N7          2.4791    8.4915    5.2577 N.ar      1 <0>        -0.5899
     29 C22         2.3764    8.3234    3.9549 C.ar      1 <0>         0.3885
     30 N8          2.0547    7.1607    3.4260 N.ar      1 <0>        -0.5927
     31 C23         2.6402    9.4939    3.0431 C.3       1 <0>        -0.0837
     32 N9          2.3639    7.6682    7.4659 N.pl3     1 <0>        -0.5948
     33 C24         2.5143    9.0160    8.0351 C.3       1 <0>         0.1300
     34 C25         1.4669    9.1980    9.1388 C.3       1 <0>         0.0413
     35 N10         1.5833    8.0987   10.1061 N.3       1 <0>        -0.5279
     36 C26         1.2928    6.8030    9.4778 C.3       1 <0>         0.0387
     37 C27         2.3270    6.5233    8.3885 C.3       1 <0>         0.1273
     38 C28         0.7149    8.3264   11.2689 C.3       1 <0>         0.0535
     39 C29         1.1382    7.4001   12.4107 C.3       1 <0>         0.0815
     40 O1          2.4523    7.7525   12.8478 O.3       1 <0>        -0.5595
     41 Cl1        -3.5580   -0.9663    2.5226 Cl        1 <0>        -0.0483
     42 H1         -3.7151    0.5256    7.9012 H         1 <0>         0.0725
     43 H2         -3.4712   -1.1030    8.5767 H         1 <0>         0.0728
     44 H3         -2.2309   -0.3815    7.5235 H         1 <0>         0.0721
     45 H4         -5.4207   -2.1375    7.6568 H         1 <0>         0.1337
     46 H5         -6.5243   -3.1200    5.6893 H         1 <0>         0.1351
     47 H6         -5.7043   -2.6048    3.4265 H         1 <0>         0.1368
     48 H7         -2.4580    0.9940    5.4089 H         1 <0>         0.4221
     49 H8          0.2047   -3.5646    2.3449 H         1 <0>         0.1328
     50 H9          2.5047   -3.2251    1.5570 H         1 <0>         0.1323
     51 H10         3.6820   -1.1169    2.0238 H         1 <0>         0.1319
     52 H11         2.5688    0.6750    3.2849 H         1 <0>         0.1192
     53 H12         0.9450    2.3814    2.8764 H         1 <0>         0.1560
     54 H13        -0.2625    3.4384    7.4465 H         1 <0>         0.2112
     55 H14         1.6248    4.7241    2.6877 H         1 <0>         0.4307
     56 H15         1.7168    5.3990    6.2317 H         1 <0>         0.1817
     57 H16         3.6973    9.5172    2.7784 H         1 <0>         0.0870
     58 H17         2.0412    9.3919    2.1382 H         1 <0>         0.0854
     59 H18         2.3730   10.4193    3.5533 H         1 <0>         0.0865
     60 H19         3.5134    9.1259    8.4568 H         1 <0>         0.0733
     61 H20         2.3586    9.7620    7.2559 H         1 <0>         0.0993
     62 H21         1.6343   10.1482    9.6460 H         1 <0>         0.0893
     63 H22         0.4697    9.1911    8.6986 H         1 <0>         0.0369
     64 H23         1.3340    6.0161   10.2310 H         1 <0>         0.0883
     65 H24         0.2981    6.8294    9.0329 H         1 <0>         0.0398
     66 H25         2.0475    5.6221    7.8428 H         1 <0>         0.0901
     67 H26         3.3077    6.3890    8.8448 H         1 <0>         0.0769
     68 H27         0.8036    9.3640   11.5909 H         1 <0>         0.0844
     69 H28        -0.3196    8.1177   10.9962 H         1 <0>         0.0498
     70 H29         0.4392    7.5037   13.2407 H         1 <0>         0.0488
     71 H30         1.1363    6.3678   12.0608 H         1 <0>         0.0445
     72 H31         2.8162    7.1585   13.5185 H         1 <0>         0.3761
@<TRIPOS>BOND
     1    1    2 1
     2    1   42 1
     3    1   43 1
     4    1   44 1
     5    2    7 ar
     6    2    3 ar
     7    3    4 ar
     8    3   45 1
     9    4    5 ar
    10    4   46 1
    11    5    6 ar
    12    5   47 1
    13    6    7 ar
    14    6   41 1
    15    7    8 1
    16    8    9 1
    17    8   48 1
    18    9   17 1
    19    9   10 2
    20   10   11 1
    21   11   16 ar
    22   11   12 ar
    23   12   13 ar
    24   12   49 1
    25   13   14 ar
    26   13   50 1
    27   14   15 ar
    28   14   51 1
    29   15   16 ar
    30   15   52 1
    31   16   17 1
    32   17   18 1
    33   18   23 ar
    34   18   19 ar
    35   19   20 ar
    36   19   53 1
    37   20   21 ar
    38   20   24 1
    39   21   22 ar
    40   22   23 ar
    41   22   54 1
    42   24   25 1
    43   24   55 1
    44   25   26 ar
    45   25   30 ar
    46   26   56 1
    47   26   27 ar
    48   27   32 1
    49   27   28 ar
    50   28   29 ar
    51   29   31 1
    52   29   30 ar
    53   31   57 1
    54   31   58 1
    55   31   59 1
    56   32   37 1
    57   32   33 1
    58   33   34 1
    59   33   60 1
    60   33   61 1
    61   34   35 1
    62   34   62 1
    63   34   63 1
    64   35   36 1
    65   35   38 1
    66   36   37 1
    67   36   64 1
    68   36   65 1
    69   37   66 1
    70   37   67 1
    71   38   39 1
    72   38   68 1
    73   38   69 1
    74   39   40 1
    75   39   70 1
    76   39   71 1
    77   40   72 1
@<TRIPOS>MOLECULE
CHEMBL447107__1
   73    78     0     0     0
SMALL
USER_CHARGES

@<TRIPOS>ATOM
      1 C1         -2.7968   -0.8715    8.1999 C.3       1 <0>        -0.1119
      2 C2         -3.4432   -1.5661    7.0292 C.ar      1 <0>        -0.0795
      3 C3         -4.4730   -2.4627    7.2397 C.ar      1 <0>        -0.1066
      4 C4         -5.0672   -3.1004    6.1666 C.ar      1 <0>        -0.1005
      5 C5         -4.6335   -2.8435    4.8786 C.ar      1 <0>        -0.1059
      6 C6         -3.6041   -1.9480    4.6606 C.ar      1 <0>        -0.0174
      7 C7         -3.0082   -1.3014    5.7375 C.ar      1 <0>         0.1578
      8 N1         -1.9698   -0.3899    5.5206 N.pl3     1 <0>        -0.6399
      9 C8         -0.8226   -0.7934    4.8689 C.2       1 <0>         0.5644
     10 N2         -0.6298   -1.9795    4.3492 N.2       1 <0>        -0.5029
     11 C9          0.6055   -2.0375    3.7850 C.ar      1 <0>         0.0961
     12 C10         1.3050   -3.0407    3.1097 C.ar      1 <0>        -0.0738
     13 C11         2.5761   -2.7921    2.6421 C.ar      1 <0>        -0.1087
     14 C12         3.1677   -1.5529    2.8365 C.ar      1 <0>        -0.1087
     15 C13         2.4899   -0.5517    3.5016 C.ar      1 <0>        -0.1019
     16 C14         1.2096   -0.7845    3.9789 C.ar      1 <0>         0.0373
     17 N3          0.2829   -0.0113    4.6635 N.pl3     1 <0>        -0.4628
     18 C15         0.4473    1.3119    5.0690 C.ar      1 <0>         0.4371
     19 C16         0.9611    2.2597    4.1911 C.ar      1 <0>        -0.2611
     20 C17         1.1056    3.5681    4.6440 C.ar      1 <0>         0.4535
     21 N4          0.7491    3.8624    5.8924 N.ar      1 <0>        -0.5686
     22 C18         0.2660    2.9350    6.6936 C.ar      1 <0>         0.3595
     23 N5          0.1097    1.6874    6.3001 N.ar      1 <0>        -0.5583
     24 N6          1.6142    4.5514    3.8063 N.pl3     1 <0>        -0.6188
     25 C19         1.8890    5.8167    4.3077 C.ar      1 <0>         0.4410
     26 C20         1.9876    6.0260    5.6792 C.ar      1 <0>        -0.3105
     27 C21         2.2652    7.3130    6.1315 C.ar      1 <0>         0.4483
     28 N7          2.4250    8.2902    5.2412 N.ar      1 <0>        -0.5865
     29 C22         2.3236    8.0511    3.9494 C.ar      1 <0>         0.3983
     30 N8          2.0673    6.8465    3.4822 N.ar      1 <0>        -0.5768
     31 C23         2.5122    9.1877    2.9780 C.3       1 <0>        -0.0899
     32 N9          2.3731    7.5735    7.4887 N.pl3     1 <0>        -0.6159
     33 C24         2.4500    8.9544    7.9901 C.3       1 <0>         0.1046
     34 C25         1.4136    9.1245    9.1057 C.3       1 <0>        -0.0217
     35 N10         1.6259    8.0948   10.1308 N.4       1 <0>        -0.3826
     36 C26         1.3788    6.7640    9.5616 C.3       1 <0>        -0.0264
     37 C27         2.4078    6.4772    8.4690 C.3       1 <0>         0.1011
     38 C28         0.7045    8.3248   11.2516 C.3       1 <0>        -0.0059
     39 C29         1.0338    7.3566   12.3895 C.3       1 <0>         0.0451
     40 O1          2.3345    7.6502   12.9033 O.3       1 <0>        -0.5796
     41 Cl1        -3.0599   -1.6259    3.0439 Cl        1 <0>        -0.0477
     42 H1         -3.2665    0.1006    8.3502 H         1 <0>         0.0702
     43 H2         -2.9222   -1.4781    9.0968 H         1 <0>         0.0732
     44 H3         -1.7341   -0.7345    7.9996 H         1 <0>         0.0702
     45 H4         -4.8140   -2.6660    8.2441 H         1 <0>         0.1344
     46 H5         -5.8718   -3.8010    6.3344 H         1 <0>         0.1369
     47 H6         -5.0996   -3.3436    4.0425 H         1 <0>         0.1385
     48 H7         -2.0561    0.5259    5.8283 H         1 <0>         0.4201
     49 H8          0.8504   -4.0081    2.9551 H         1 <0>         0.1353
     50 H9          3.1166   -3.5681    2.1204 H         1 <0>         0.1349
     51 H10         4.1654   -1.3705    2.4653 H         1 <0>         0.1334
     52 H11         2.9561    0.4111    3.6501 H         1 <0>         0.1176
     53 H12         1.2411    1.9878    3.1841 H         1 <0>         0.1595
     54 H13        -0.0139    3.2062    7.7008 H         1 <0>         0.2091
     55 H14         1.7778    4.3545    2.8707 H         1 <0>         0.4353
     56 H15         1.8521    5.2113    6.3752 H         1 <0>         0.1834
     57 H16         3.5643    9.2593    2.7023 H         1 <0>         0.0930
     58 H17         1.9141    9.0056    2.0851 H         1 <0>         0.0916
     59 H18         2.1944   10.1205    3.4441 H         1 <0>         0.0897
     60 H19         3.4478    9.1457    8.3848 H         1 <0>         0.0908
     61 H20         2.2336    9.6508    7.1799 H         1 <0>         0.1390
     62 H21         1.5214   10.1119    9.5546 H         1 <0>         0.1441
     63 H22         0.4114    9.0218    8.6896 H         1 <0>         0.1326
     64 H23         1.4611    6.0121   10.3464 H         1 <0>         0.1425
     65 H24         0.3777    6.7328    9.1317 H         1 <0>         0.1359
     66 H25         2.1636    5.5366    7.9753 H         1 <0>         0.1309
     67 H26         3.4013    6.4141    8.9129 H         1 <0>         0.0944
     68 H27         0.8110    9.3505   11.6049 H         1 <0>         0.1403
     69 H28        -0.3204    8.1597   10.9191 H         1 <0>         0.1424
     70 H29         0.2960    7.4658   13.1845 H         1 <0>         0.0965
     71 H30         1.0140    6.3337   12.0135 H         1 <0>         0.0713
     72 H31         2.6413    7.0274   13.5765 H         1 <0>         0.4094
     73 H32         2.5767    8.1453   10.4646 H         1 <0>         0.4306
@<TRIPOS>BOND
     1    1    2 1
     2    1   42 1
     3    1   43 1
     4    1   44 1
     5    2    7 ar
     6    2    3 ar
     7    3    4 ar
     8    3   45 1
     9    4    5 ar
    10    4   46 1
    11    5    6 ar
    12    5   47 1
    13    6    7 ar
    14    6   41 1
    15    7    8 1
    16    8    9 1
    17    8   48 1
    18    9   17 1
    19    9   10 2
    20   10   11 1
    21   11   16 ar
    22   11   12 ar
    23   12   13 ar
    24   12   49 1
    25   13   14 ar
    26   13   50 1
    27   14   15 ar
    28   14   51 1
    29   15   16 ar
    30   15   52 1
    31   16   17 1
    32   17   18 1
    33   18   23 ar
    34   18   19 ar
    35   19   20 ar
    36   19   53 1
    37   20   21 ar
    38   20   24 1
    39   21   22 ar
    40   22   23 ar
    41   22   54 1
    42   24   25 1
    43   24   55 1
    44   25   26 ar
    45   25   30 ar
    46   26   56 1
    47   26   27 ar
    48   27   32 1
    49   27   28 ar
    50   28   29 ar
    51   29   31 1
    52   29   30 ar
    53   31   57 1
    54   31   58 1
    55   31   59 1
    56   32   37 1
    57   32   33 1
    58   33   34 1
    59   33   60 1
    60   33   61 1
    61   34   35 1
    62   34   62 1
    63   34   63 1
    64   35   36 1
    65   35   38 1
    66   35   73 1
    67   36   37 1
    68   36   64 1
    69   36   65 1
    70   37   66 1
    71   37   67 1
    72   38   39 1
    73   38   68 1
    74   38   69 1
    75   39   40 1
    76   39   70 1
    77   39   71 1
    78   40   72 1
@<TRIPOS>MOLECULE
CHEMBL447107__2
   73    78     0     0     0
SMALL
USER_CHARGES

@<TRIPOS>ATOM
      1 C1         -3.5851   -0.2422    7.4645 C.3       1 <0>        -0.1136
      2 C2         -4.2053   -0.8567    6.2362 C.ar      1 <0>        -0.0766
      3 C3         -5.3121   -1.6748    6.3561 C.ar      1 <0>        -0.1060
      4 C4         -5.8825   -2.2389    5.2301 C.ar      1 <0>        -0.0980
      5 C5         -5.3477   -1.9867    3.9798 C.ar      1 <0>        -0.1066
      6 C6         -4.2408   -1.1695    3.8524 C.ar      1 <0>        -0.0160
      7 C7         -3.6684   -0.5967    4.9825 C.ar      1 <0>         0.1535
      8 N1         -2.5515    0.2357    4.8572 N.pl3     1 <0>        -0.6390
      9 C8         -1.3957   -0.2435    4.2758 C.2       1 <0>         0.5653
     10 N2         -1.2654   -1.4218    3.7201 N.2       1 <0>        -0.4986
     11 C9          0.0007   -1.5682    3.2476 C.ar      1 <0>         0.0986
     12 C10         0.6622   -2.6037    2.5828 C.ar      1 <0>        -0.0717
     13 C11         1.9826   -2.4519    2.2228 C.ar      1 <0>        -0.1067
     14 C12         2.6614   -1.2783    2.5152 C.ar      1 <0>        -0.1075
     15 C13         2.0220   -0.2463    3.1714 C.ar      1 <0>        -0.1033
     16 C14         0.6931   -0.3821    3.5412 C.ar      1 <0>         0.0337
     17 N3         -0.2146    0.4443    4.1882 N.pl3     1 <0>        -0.4650
     18 C15         0.0306    1.7315    4.6627 C.ar      1 <0>         0.4446
     19 C16         0.6902    2.6623    3.8680 C.ar      1 <0>        -0.2482
     20 C17         0.9106    3.9349    4.3877 C.ar      1 <0>         0.4333
     21 N4          0.4848    4.2125    5.6181 N.ar      1 <0>        -0.5653
     22 C18        -0.1366    3.3022    6.3395 C.ar      1 <0>         0.3735
     23 N5         -0.3681    2.0890    5.8808 N.ar      1 <0>        -0.5411
     24 N6          1.5650    4.8998    3.6342 N.pl3     1 <0>        -0.6297
     25 C19         1.8882    6.1242    4.2038 C.ar      1 <0>         0.4543
     26 C20         1.9741    6.2589    5.5855 C.ar      1 <0>        -0.2681
     27 C21         2.3018    7.5073    6.1071 C.ar      1 <0>         0.4918
     28 N7          2.5196    8.5200    5.2705 N.ar      1 <0>        -0.5318
     29 C22         2.4284    8.3517    3.9669 C.ar      1 <0>         0.4532
     30 N8          2.1258    7.1853    3.4349 N.ar      1 <0>        -0.5660
     31 C23         2.6834    9.5264    3.0579 C.3       1 <0>        -0.1261
     32 N9          2.3994    7.6934    7.4773 N.pl3     1 <0>        -0.5381
     33 C24         2.5280    9.0426    8.0486 C.3       1 <0>         0.1091
     34 C25         1.4704    9.2098    9.1448 C.3       1 <0>         0.0390
     35 N10         1.5945    8.1112   10.1122 N.3       1 <0>        -0.5292
     36 C26         1.3257    6.8123    9.4808 C.3       1 <0>         0.0351
     37 C27         2.3712    6.5473    8.3987 C.3       1 <0>         0.1072
     38 C28         0.7150    8.3264   11.2689 C.3       1 <0>         0.0540
     39 C29         1.1382    7.4001   12.4107 C.3       1 <0>         0.0799
     40 O1          2.4523    7.7525   12.8478 O.3       1 <0>        -0.5608
     41 Cl1        -3.5698   -0.8532    2.2829 Cl        1 <0>        -0.0497
     42 H1         -3.9879    0.7598    7.6124 H         1 <0>         0.0718
     43 H2         -3.8144   -0.8580    8.3342 H         1 <0>         0.0748
     44 H3         -2.5043   -0.1839    7.3354 H         1 <0>         0.0699
     45 H4         -5.7322   -1.8742    7.3309 H         1 <0>         0.1358
     46 H5         -6.7475   -2.8783    5.3271 H         1 <0>         0.1379
     47 H6         -5.7954   -2.4292    3.1022 H         1 <0>         0.1390
     48 H7         -2.5894    1.1500    5.1792 H         1 <0>         0.4195
     49 H8          0.1398   -3.5204    2.3523 H         1 <0>         0.1370
     50 H9          2.4936   -3.2528    1.7091 H         1 <0>         0.1365
     51 H10         3.6970   -1.1715    2.2279 H         1 <0>         0.1342
     52 H11         2.5561    0.6650    3.3967 H         1 <0>         0.1162
     53 H12         1.0232    2.4047    2.8735 H         1 <0>         0.1643
     54 H13        -0.4696    3.5591    7.3343 H         1 <0>         0.2206
     55 H14         1.7966    4.7187    2.7098 H         1 <0>         0.4409
     56 H15         1.7909    5.4170    6.2367 H         1 <0>         0.2073
     57 H16         3.7420    9.5637    2.8008 H         1 <0>         0.1246
     58 H17         2.0923    9.4173    2.1487 H         1 <0>         0.1070
     59 H18         2.4005   10.4478    3.5669 H         1 <0>         0.1275
     60 H19         3.5225    9.1654    8.4774 H         1 <0>         0.0987
     61 H20         2.3679    9.7872    7.2688 H         1 <0>         0.1098
     62 H21         1.6216   10.1616    9.6540 H         1 <0>         0.1037
     63 H22         0.4766    9.1900    8.6975 H         1 <0>         0.0432
     64 H23         1.3720    6.0255   10.2336 H         1 <0>         0.1024
     65 H24         0.3339    6.8259    9.0288 H         1 <0>         0.0461
     66 H25         2.1075    5.6430    7.8503 H         1 <0>         0.0987
     67 H26         3.3504    6.4257    8.8619 H         1 <0>         0.1038
     68 H27         0.7911    9.3636   11.5952 H         1 <0>         0.0901
     69 H28        -0.3153    8.1088   10.9874 H         1 <0>         0.0546
     70 H29         0.4392    7.5037   13.2407 H         1 <0>         0.0542
     71 H30         1.1363    6.3678   12.0608 H         1 <0>         0.0440
     72 H31         2.8162    7.1585   13.5185 H         1 <0>         0.3805
     73 H32         2.0716    7.0990    2.4702 H         1 <0>         0.4418
@<TRIPOS>BOND
     1    1    2 1
     2    1   42 1
     3    1   43 1
     4    1   44 1
     5    2    7 ar
     6    2    3 ar
     7    3    4 ar
     8    3   45 1
     9    4    5 ar
    10    4   46 1
    11    5    6 ar
    12    5   47 1
    13    6    7 ar
    14    6   41 1
    15    7    8 1
    16    8    9 1
    17    8   48 1
    18    9   17 1
    19    9   10 2
    20   10   11 1
    21   11   16 ar
    22   11   12 ar
    23   12   13 ar
    24   12   49 1
    25   13   14 ar
    26   13   50 1
    27   14   15 ar
    28   14   51 1
    29   15   16 ar
    30   15   52 1
    31   16   17 1
    32   17   18 1
    33   18   23 ar
    34   18   19 ar
    35   19   20 ar
    36   19   53 1
    37   20   21 ar
    38   20   24 1
    39   21   22 ar
    40   22   23 ar
    41   22   54 1
    42   24   25 1
    43   24   55 1
    44   25   26 ar
    45   25   30 ar
    46   26   56 1
    47   26   27 ar
    48   27   32 1
    49   27   28 ar
    50   28   29 ar
    51   29   31 1
    52   29   30 ar
    53   30   73 1
    54   31   57 1
    55   31   58 1
    56   31   59 1
    57   32   37 1
    58   32   33 1
    59   33   34 1
    60   33   60 1
    61   33   61 1
    62   34   35 1
    63   34   62 1
    64   34   63 1
    65   35   36 1
    66   35   38 1
    67   36   37 1
    68   36   64 1
    69   36   65 1
    70   37   66 1
    71   37   67 1
    72   38   39 1
    73   38   68 1
    74   38   69 1
    75   39   40 1
    76   39   70 1
    77   39   71 1
    78   40   72 1
@<TRIPOS>MOLECULE
CHEMBL450092
   72    77     0     0     0
SMALL
USER_CHARGES

@<TRIPOS>ATOM
      1 C1         -2.8936   -1.0318    7.5482 C.3       1 <0>        -0.1144
      2 C2         -3.4152   -1.7108    6.3080 C.ar      1 <0>        -0.0774
      3 C3         -4.4571   -2.6132    6.4001 C.ar      1 <0>        -0.1070
      4 C4         -4.9370   -3.2365    5.2632 C.ar      1 <0>        -0.1032
      5 C5         -4.3762   -2.9593    4.0296 C.ar      1 <0>        -0.1079
      6 C6         -3.3338   -2.0578    3.9300 C.ar      1 <0>        -0.0174
      7 C7         -2.8528   -1.4256    5.0710 C.ar      1 <0>         0.1612
      8 N1         -1.8017   -0.5081    4.9736 N.pl3     1 <0>        -0.6412
      9 C8         -0.5932   -0.8983    4.4345 C.2       1 <0>         0.5664
     10 N2         -0.3436   -2.0762    3.9204 N.2       1 <0>        -0.5078
     11 C9          0.9424   -2.1220    3.4823 C.ar      1 <0>         0.0948
     12 C10         1.7109   -3.1132    2.8668 C.ar      1 <0>        -0.0767
     13 C11         3.0213   -2.8537    2.5326 C.ar      1 <0>        -0.1117
     14 C12         3.5845   -1.6154    2.8024 C.ar      1 <0>        -0.1116
     15 C13         2.8386   -0.6260    3.4099 C.ar      1 <0>        -0.0997
     16 C14         1.5180   -0.8699    3.7531 C.ar      1 <0>         0.0416
     17 N3          0.5234   -0.1094    4.3514 N.pl3     1 <0>        -0.4613
     18 C15         0.6399    1.2085    4.7890 C.ar      1 <0>         0.4265
     19 C16         1.1714    2.1845    3.9536 C.ar      1 <0>        -0.2633
     20 C17         1.2666    3.4864    4.4376 C.ar      1 <0>         0.4542
     21 N4          0.8483    3.7478    5.6741 N.ar      1 <0>        -0.5548
     22 C18         0.3504    2.7944    6.4347 C.ar      1 <0>         0.3634
     23 N5          0.2390    1.5520    6.0104 N.ar      1 <0>        -0.5589
     24 N6          1.7905    4.4969    3.6428 N.pl3     1 <0>        -0.6186
     25 C19         2.0140    5.7574    4.1802 C.ar      1 <0>         0.4278
     26 C20         2.0285    5.9445    5.5588 C.ar      1 <0>        -0.3134
     27 C21         2.2574    7.2273    6.0474 C.ar      1 <0>         0.4540
     28 N7          2.4529    8.2224    5.1841 N.ar      1 <0>        -0.5911
     29 C22         2.4315    8.0043    3.8851 C.ar      1 <0>         0.3882
     30 N8          2.2232    6.8038    3.3838 N.ar      1 <0>        -0.5907
     31 C23         2.6577    9.1605    2.9454 C.3       1 <0>        -0.0844
     32 N9          2.2811    7.4660    7.4128 N.pl3     1 <0>        -0.7107
     33 C24         2.1799    6.3476    8.3537 C.3       1 <0>         0.1314
     34 C25         2.1296    6.8878    9.7843 C.3       1 <0>         0.0441
     35 N10         2.0966    5.7648   10.7308 N.3       1 <0>        -0.5327
     36 C26         0.8140    5.0503   10.6561 C.3       1 <0>         0.0129
     37 C27         0.8451    3.8555   11.6129 C.3       1 <0>         0.0626
     38 O1          1.1311    4.3177   12.9357 O.3       1 <0>        -0.3838
     39 C28         2.3735    5.0176   13.0449 C.3       1 <0>         0.0629
     40 C29         2.3579    6.2242   12.1027 C.3       1 <0>         0.0185
     41 Cl1        -2.6302   -1.7101    2.3816 Cl        1 <0>        -0.0485
     42 H1         -3.3786   -0.0625    7.6630 H         1 <0>         0.0726
     43 H2         -3.1085   -1.6511    8.4191 H         1 <0>         0.0731
     44 H3         -1.8164   -0.8908    7.4594 H         1 <0>         0.0721
     45 H4         -4.8972   -2.8324    7.3617 H         1 <0>         0.1338
     46 H5         -5.7514   -3.9418    5.3384 H         1 <0>         0.1350
     47 H6         -4.7532   -3.4482    3.1434 H         1 <0>         0.1367
     48 H7         -1.9223    0.4026    5.2852 H         1 <0>         0.4214
     49 H8          1.2787   -4.0798    2.6541 H         1 <0>         0.1327
     50 H9          3.6150   -3.6204    2.0571 H         1 <0>         0.1321
     51 H10         4.6134   -1.4243    2.5358 H         1 <0>         0.1316
     52 H11         3.2829    0.3362    3.6177 H         1 <0>         0.1187
     53 H12         1.5021    1.9391    2.9552 H         1 <0>         0.1561
     54 H13         0.0202    3.0391    7.4334 H         1 <0>         0.2101
     55 H14         2.0003    4.3223    2.7120 H         1 <0>         0.4309
     56 H15         1.8660    5.1159    6.2321 H         1 <0>         0.1833
     57 H16         3.7229    9.2533    2.7334 H         1 <0>         0.0872
     58 H17         2.1163    8.9845    2.0159 H         1 <0>         0.0861
     59 H18         2.2977   10.0798    3.4071 H         1 <0>         0.0869
     60 H19         2.3647    8.3734    7.7452 H         1 <0>         0.4079
     61 H20         1.2724    5.7802    8.1475 H         1 <0>         0.0706
     62 H21         3.0480    5.6982    8.2409 H         1 <0>         0.0734
     63 H22         3.0133    7.4970    9.9740 H         1 <0>         0.0849
     64 H23         1.2345    7.4966    9.9116 H         1 <0>         0.0467
     65 H24         0.0053    5.7235   10.9407 H         1 <0>         0.0469
     66 H25         0.6529    4.6970    9.6377 H         1 <0>         0.0879
     67 H26        -0.1238    3.3563   11.6033 H         1 <0>         0.1002
     68 H27         1.6188    3.1559   11.2965 H         1 <0>         0.0613
     69 H28         2.5100    5.3589   14.0711 H         1 <0>         0.1006
     70 H29         3.1917    4.3519   12.7702 H         1 <0>         0.0616
     71 H30         3.3239    6.7278   12.1401 H         1 <0>         0.0890
     72 H31         1.5739    6.9161   12.4103 H         1 <0>         0.0464
@<TRIPOS>BOND
     1    1    2 1
     2    1   42 1
     3    1   43 1
     4    1   44 1
     5    2    7 ar
     6    2    3 ar
     7    3    4 ar
     8    3   45 1
     9    4    5 ar
    10    4   46 1
    11    5    6 ar
    12    5   47 1
    13    6    7 ar
    14    6   41 1
    15    7    8 1
    16    8    9 1
    17    8   48 1
    18    9   17 1
    19    9   10 2
    20   10   11 1
    21   11   16 ar
    22   11   12 ar
    23   12   13 ar
    24   12   49 1
    25   13   14 ar
    26   13   50 1
    27   14   15 ar
    28   14   51 1
    29   15   16 ar
    30   15   52 1
    31   16   17 1
    32   17   18 1
    33   18   23 ar
    34   18   19 ar
    35   19   20 ar
    36   19   53 1
    37   20   21 ar
    38   20   24 1
    39   21   22 ar
    40   22   23 ar
    41   22   54 1
    42   24   25 1
    43   24   55 1
    44   25   30 ar
    45   25   26 ar
    46   26   27 ar
    47   26   56 1
    48   27   28 ar
    49   27   32 1
    50   28   29 ar
    51   29   30 ar
    52   29   31 1
    53   31   57 1
    54   31   58 1
    55   31   59 1
    56   32   33 1
    57   32   60 1
    58   33   34 1
    59   33   61 1
    60   33   62 1
    61   34   35 1
    62   34   63 1
    63   34   64 1
    64   35   40 1
    65   35   36 1
    66   36   37 1
    67   36   65 1
    68   36   66 1
    69   37   38 1
    70   37   67 1
    71   37   68 1
    72   38   39 1
    73   39   40 1
    74   39   69 1
    75   39   70 1
    76   40   71 1
    77   40   72 1
@<TRIPOS>MOLECULE
CHEMBL450092__1
   73    78     0     0     0
SMALL
USER_CHARGES

@<TRIPOS>ATOM
      1 C1         -3.4968   -0.6534    7.3234 C.3       1 <0>        -0.1137
      2 C2         -3.9980   -1.3396    6.0788 C.ar      1 <0>        -0.0763
      3 C3         -5.0875   -2.1863    6.1473 C.ar      1 <0>        -0.1059
      4 C4         -5.5487   -2.8162    5.0062 C.ar      1 <0>        -0.0979
      5 C5         -4.9216   -2.6014    3.7923 C.ar      1 <0>        -0.1068
      6 C6         -3.8314   -1.7559    3.7165 C.ar      1 <0>        -0.0157
      7 C7         -3.3687   -1.1171    4.8614 C.ar      1 <0>         0.1533
      8 N1         -2.2690   -0.2561    4.7877 N.pl3     1 <0>        -0.6396
      9 C8         -1.0569   -0.7234    4.3233 C.2       1 <0>         0.5654
     10 N2         -0.8494   -1.9192    3.8323 N.2       1 <0>        -0.4983
     11 C9          0.4549   -2.0464    3.4711 C.ar      1 <0>         0.0982
     12 C10         1.1967   -3.0880    2.9083 C.ar      1 <0>        -0.0716
     13 C11         2.5378   -2.9110    2.6505 C.ar      1 <0>        -0.1071
     14 C12         3.1581   -1.7061    2.9453 C.ar      1 <0>        -0.1073
     15 C13         2.4392   -0.6678    3.5015 C.ar      1 <0>        -0.1034
     16 C14         1.0884   -0.8286    3.7676 C.ar      1 <0>         0.0350
     17 N3          0.1084   -0.0039    4.3014 N.pl3     1 <0>        -0.4666
     18 C15         0.2786    1.3089    4.7369 C.ar      1 <0>         0.4438
     19 C16         0.9210    2.2416    3.9304 C.ar      1 <0>        -0.2442
     20 C17         1.0661    3.5401    4.4109 C.ar      1 <0>         0.4306
     21 N4          0.5879    3.8397    5.6167 N.ar      1 <0>        -0.5629
     22 C18        -0.0149    2.9267    6.3504 C.ar      1 <0>         0.3723
     23 N5         -0.1762    1.6891    5.9281 N.ar      1 <0>        -0.5365
     24 N6          1.7005    4.5082    3.6443 N.pl3     1 <0>        -0.6282
     25 C19         1.9518    5.7639    4.1807 C.ar      1 <0>         0.4593
     26 C20         1.9807    5.9496    5.5592 C.ar      1 <0>        -0.2669
     27 C21         2.2373    7.2276    6.0469 C.ar      1 <0>         0.4976
     28 N7          2.4444    8.2195    5.1827 N.ar      1 <0>        -0.5314
     29 C22         2.4086    8.0029    3.8838 C.ar      1 <0>         0.4537
     30 N8          2.1740    6.8069    3.3833 N.ar      1 <0>        -0.5631
     31 C23         2.6489    9.1554    2.9430 C.3       1 <0>        -0.1271
     32 N9          2.2763    7.4646    7.4122 N.pl3     1 <0>        -0.6543
     33 C24         2.1613    6.3477    8.3532 C.3       1 <0>         0.1059
     34 C25         2.1296    6.8878    9.7843 C.3       1 <0>         0.0399
     35 N10         2.0966    5.7648   10.7308 N.3       1 <0>        -0.5325
     36 C26         0.8140    5.0503   10.6561 C.3       1 <0>         0.0116
     37 C27         0.8451    3.8555   11.6129 C.3       1 <0>         0.0615
     38 O1          1.1311    4.3177   12.9357 O.3       1 <0>        -0.3800
     39 C28         2.3735    5.0176   13.0449 C.3       1 <0>         0.0616
     40 C29         2.3579    6.2242   12.1027 C.3       1 <0>         0.0184
     41 Cl1        -3.0445   -1.4866    2.1927 Cl        1 <0>        -0.0499
     42 H1         -3.9361    0.3418    7.3915 H         1 <0>         0.0718
     43 H2         -3.7808   -1.2366    8.1993 H         1 <0>         0.0751
     44 H3         -2.4109   -0.5690    7.2795 H         1 <0>         0.0700
     45 H4         -5.5795   -2.3566    7.0935 H         1 <0>         0.1360
     46 H5         -6.4005   -3.4778    5.0630 H         1 <0>         0.1379
     47 H6         -5.2842   -3.0953    2.9029 H         1 <0>         0.1389
     48 H7         -2.3586    0.6697    5.0632 H         1 <0>         0.4186
     49 H8          0.7200   -4.0289    2.6765 H         1 <0>         0.1369
     50 H9          3.1108   -3.7165    2.2157 H         1 <0>         0.1363
     51 H10         4.2106   -1.5798    2.7387 H         1 <0>         0.1340
     52 H11         2.9280    0.2680    3.7291 H         1 <0>         0.1158
     53 H12         1.2979    1.9659    2.9566 H         1 <0>         0.1647
     54 H13        -0.3915    3.2017    7.3246 H         1 <0>         0.2202
     55 H14         1.9682    4.3073    2.7339 H         1 <0>         0.4415
     56 H15         1.8082    5.1236    6.2333 H         1 <0>         0.2090
     57 H16         3.7138    9.2286    2.7226 H         1 <0>         0.1255
     58 H17         2.0969    8.9902    2.0177 H         1 <0>         0.1080
     59 H18         2.3096   10.0809    3.4082 H         1 <0>         0.1286
     60 H19         2.3797    8.3701    7.7445 H         1 <0>         0.4270
     61 H20         1.2426    5.7965    8.1524 H         1 <0>         0.0897
     62 H21         3.0171    5.6831    8.2345 H         1 <0>         0.0961
     63 H22         3.0202    7.4895    9.9654 H         1 <0>         0.0915
     64 H23         1.2409    7.5040    9.9205 H         1 <0>         0.0534
     65 H24         0.0053    5.7235   10.9407 H         1 <0>         0.0506
     66 H25         0.6529    4.6970    9.6377 H         1 <0>         0.0842
     67 H26        -0.1238    3.3563   11.6033 H         1 <0>         0.1023
     68 H27         1.6188    3.1559   11.2965 H         1 <0>         0.0616
     69 H28         2.5100    5.3589   14.0711 H         1 <0>         0.1050
     70 H29         3.1917    4.3519   12.7702 H         1 <0>         0.0633
     71 H30         3.3239    6.7278   12.1401 H         1 <0>         0.0920
     72 H31         1.5739    6.9161   12.4103 H         1 <0>         0.0506
     73 H32         2.1596    6.6852    2.4211 H         1 <0>         0.4431
@<TRIPOS>BOND
     1    1    2 1
     2    1   42 1
     3    1   43 1
     4    1   44 1
     5    2    7 ar
     6    2    3 ar
     7    3    4 ar
     8    3   45 1
     9    4    5 ar
    10    4   46 1
    11    5    6 ar
    12    5   47 1
    13    6    7 ar
    14    6   41 1
    15    7    8 1
    16    8    9 1
    17    8   48 1
    18    9   17 1
    19    9   10 2
    20   10   11 1
    21   11   16 ar
    22   11   12 ar
    23   12   13 ar
    24   12   49 1
    25   13   14 ar
    26   13   50 1
    27   14   15 ar
    28   14   51 1
    29   15   16 ar
    30   15   52 1
    31   16   17 1
    32   17   18 1
    33   18   23 ar
    34   18   19 ar
    35   19   20 ar
    36   19   53 1
    37   20   21 ar
    38   20   24 1
    39   21   22 ar
    40   22   23 ar
    41   22   54 1
    42   24   25 1
    43   24   55 1
    44   25   30 ar
    45   25   26 ar
    46   26   27 ar
    47   26   56 1
    48   27   28 ar
    49   27   32 1
    50   28   29 ar
    51   29   30 ar
    52   29   31 1
    53   30   73 1
    54   31   57 1
    55   31   58 1
    56   31   59 1
    57   32   33 1
    58   32   60 1
    59   33   34 1
    60   33   61 1
    61   33   62 1
    62   34   35 1
    63   34   63 1
    64   34   64 1
    65   35   40 1
    66   35   36 1
    67   36   37 1
    68   36   65 1
    69   36   66 1
    70   37   38 1
    71   37   67 1
    72   37   68 1
    73   38   39 1
    74   39   40 1
    75   39   69 1
    76   39   70 1
    77   40   71 1
    78   40   72 1
@<TRIPOS>MOLECULE
CHEMBL68038
   58    62     0     0     0
SMALL
USER_CHARGES

@<TRIPOS>ATOM
      1 C1         -2.3214    0.0994    0.8118 C.3       1 <0>        -0.1140
      2 C2         -1.1016   -0.6762    0.3859 C.ar      1 <0>        -0.0627
      3 C3         -1.0990   -1.3545   -0.8177 C.ar      1 <0>        -0.1105
      4 C4          0.0194   -2.0665   -1.2097 C.ar      1 <0>        -0.0920
      5 C5          1.1395   -2.1026   -0.3991 C.ar      1 <0>        -0.1118
      6 C6          1.1439   -1.4261    0.8058 C.ar      1 <0>        -0.0206
      7 C7          0.0226   -0.7051    1.2000 C.ar      1 <0>         0.1345
      8 N1          0.0251   -0.0145    2.4167 N.am      1 <0>        -0.6762
      9 C8         -0.3549   -0.6410    3.5479 C.2       1 <0>         0.5686
     10 O1         -0.6122   -1.8294    3.5278 O.2       1 <0>        -0.5069
     11 C9         -0.4587    0.1146    4.8100 C.ar      1 <0>        -0.1151
     12 C10        -0.1701    1.4863    4.8440 C.ar      1 <0>        -0.0714
     13 C11        -0.2590    2.2000    5.9930 C.ar      1 <0>        -0.0684
     14 C12        -0.6487    1.5837    7.2083 C.ar      1 <0>         0.1260
     15 C13        -0.9349    0.1976    7.1485 C.ar      1 <0>        -0.1616
     16 C14        -0.8521   -0.5251    5.9901 C.ar      1 <0>         0.0100
     17 S1         -1.3695   -0.1718    8.8313 S.3       1 <0>         0.0521
     18 C15        -1.1520    1.4772    9.4855 C.2       1 <0>         0.3606
     19 N2         -0.7816    2.1540    8.4214 N.2       1 <0>        -0.5075
     20 N3         -1.3285    1.9268   10.7822 N.am      1 <0>        -0.6060
     21 C16        -1.1121    3.2231   11.0814 C.2       1 <0>         0.5433
     22 O2         -0.7627    3.9953   10.2141 O.2       1 <0>        -0.4793
     23 C17        -1.3044    3.7127   12.4936 C.3       1 <0>        -0.1641
     24 C18        -2.4763    4.6597   12.7595 C.3       1 <0>        -0.1317
     25 C19        -1.0430    5.1948   12.7691 C.3       1 <0>        -0.1662
     26 C20        -0.6063    6.0663   11.5898 C.3       1 <0>         0.0322
     27 N4         -0.2902    7.4180   12.0705 N.4       1 <0>        -0.3946
     28 C21         0.9381    7.3905   12.9052 C.3       1 <0>        -0.0075
     29 C22         1.4379    8.8560   12.8488 C.3       1 <0>        -0.1454
     30 C23         1.1228    9.2729   11.3938 C.3       1 <0>        -0.1450
     31 C24         0.0180    8.3062   10.9287 C.3       1 <0>        -0.0071
     32 Cl1         2.5499   -1.4716    1.8231 Cl        1 <0>        -0.0581
     33 H1         -2.2503    1.1215    0.4398 H         1 <0>         0.0770
     34 H2         -3.2142   -0.3745    0.4037 H         1 <0>         0.0748
     35 H3         -2.3822    0.1123    1.9000 H         1 <0>         0.0654
     36 H4         -1.9719   -1.3288   -1.4531 H         1 <0>         0.1360
     37 H5          0.0184   -2.5960   -2.1510 H         1 <0>         0.1386
     38 H6          2.0112   -2.6603   -0.7079 H         1 <0>         0.1395
     39 H7          0.3003    0.9151    2.4462 H         1 <0>         0.4095
     40 H8          0.1300    1.9853    3.9344 H         1 <0>         0.1395
     41 H9         -0.0288    3.2551    5.9822 H         1 <0>         0.1409
     42 H10        -1.0838   -1.5799    5.9876 H         1 <0>         0.1520
     43 H11        -1.6080    1.3091   11.4759 H         1 <0>         0.4363
     44 H12        -1.0438    3.0015   13.2773 H         1 <0>         0.1502
     45 H13        -3.1082    4.9286   11.9130 H         1 <0>         0.1151
     46 H14        -2.9870    4.5716   13.7184 H         1 <0>         0.1284
     47 H15        -0.6107    5.4587   13.7343 H         1 <0>         0.1388
     48 H16         0.2773    5.6306   11.1236 H         1 <0>         0.1438
     49 H17        -1.4135    6.1200   10.8593 H         1 <0>         0.1356
     50 H18         0.7006    7.1043   13.9298 H         1 <0>         0.1332
     51 H19         1.6787    6.7147   12.4777 H         1 <0>         0.1330
     52 H20         0.8892    9.4782   13.5557 H         1 <0>         0.0977
     53 H21         2.5098    8.9056   13.0407 H         1 <0>         0.1157
     54 H22         0.7627   10.3013   11.3645 H         1 <0>         0.1048
     55 H23         2.0090    9.1636   10.7686 H         1 <0>         0.1033
     56 H24         0.3728    7.7156   10.0841 H         1 <0>         0.1316
     57 H25        -0.8717    8.8682   10.6447 H         1 <0>         0.1314
     58 H26        -1.0642    7.7890   12.6008 H         1 <0>         0.4246
@<TRIPOS>BOND
     1    1    2 1
     2    1   33 1
     3    1   34 1
     4    1   35 1
     5    2    7 ar
     6    2    3 ar
     7    3    4 ar
     8    3   36 1
     9    4    5 ar
    10    4   37 1
    11    5    6 ar
    12    5   38 1
    13    6    7 ar
    14    6   32 1
    15    7    8 1
    16    8    9 am
    17    8   39 1
    18    9   10 2
    19    9   11 1
    20   11   16 ar
    21   11   12 ar
    22   12   13 ar
    23   12   40 1
    24   13   14 ar
    25   13   41 1
    26   14   19 1
    27   14   15 ar
    28   15   16 ar
    29   15   17 1
    30   16   42 1
    31   17   18 1
    32   18   19 2
    33   18   20 1
    34   20   21 am
    35   20   43 1
    36   21   22 2
    37   21   23 1
    38   23   25 1
    39   23   24 1
    40   23   44 1
    41   24   25 1
    42   24   45 1
    43   24   46 1
    44   25   26 1
    45   25   47 1
    46   26   27 1
    47   26   48 1
    48   26   49 1
    49   27   31 1
    50   27   28 1
    51   27   58 1
    52   28   29 1
    53   28   50 1
    54   28   51 1
    55   29   30 1
    56   29   52 1
    57   29   53 1
    58   30   31 1
    59   30   54 1
    60   30   55 1
    61   31   56 1
    62   31   57 1
@<TRIPOS>MOLECULE
CHEMBL68038__1
   58    62     0     0     0
SMALL
USER_CHARGES

@<TRIPOS>ATOM
      1 C1         -2.3214    0.0994    0.8118 C.3       1 <0>        -0.1142
      2 C2         -1.1016   -0.6762    0.3859 C.ar      1 <0>        -0.0626
      3 C3         -1.0990   -1.3545   -0.8177 C.ar      1 <0>        -0.1106
      4 C4          0.0194   -2.0665   -1.2097 C.ar      1 <0>        -0.0925
      5 C5          1.1395   -2.1026   -0.3991 C.ar      1 <0>        -0.1120
      6 C6          1.1439   -1.4261    0.8058 C.ar      1 <0>        -0.0207
      7 C7          0.0226   -0.7051    1.2000 C.ar      1 <0>         0.1352
      8 N1          0.0251   -0.0145    2.4167 N.am      1 <0>        -0.6766
      9 C8         -0.3549   -0.6410    3.5479 C.2       1 <0>         0.5695
     10 O1         -0.6122   -1.8294    3.5278 O.2       1 <0>        -0.5080
     11 C9         -0.4587    0.1146    4.8100 C.ar      1 <0>        -0.1167
     12 C10        -0.1701    1.4863    4.8440 C.ar      1 <0>        -0.0713
     13 C11        -0.2590    2.2000    5.9930 C.ar      1 <0>        -0.0682
     14 C12        -0.6487    1.5837    7.2083 C.ar      1 <0>         0.1279
     15 C13        -0.9349    0.1976    7.1485 C.ar      1 <0>        -0.1618
     16 C14        -0.8521   -0.5251    5.9901 C.ar      1 <0>         0.0098
     17 S1         -1.3695   -0.1718    8.8313 S.3       1 <0>         0.0461
     18 C15        -1.1520    1.4772    9.4855 C.2       1 <0>         0.3637
     19 N2         -0.7816    2.1540    8.4214 N.2       1 <0>        -0.5079
     20 N3         -1.3285    1.9268   10.7822 N.am      1 <0>        -0.6093
     21 C16        -1.1121    3.2231   11.0814 C.2       1 <0>         0.5366
     22 O2         -0.7627    3.9953   10.2141 O.2       1 <0>        -0.4614
     23 C17        -1.3044    3.7127   12.4936 C.3       1 <0>        -0.1598
     24 C18        -2.4763    4.6597   12.7595 C.3       1 <0>        -0.1305
     25 C19        -1.0430    5.1948   12.7691 C.3       1 <0>        -0.1704
     26 C20        -0.4362    5.5652   14.1239 C.3       1 <0>         0.0296
     27 N4         -0.1503    7.0058   14.1551 N.4       1 <0>        -0.3930
     28 C21        -1.4181    7.7796   14.1629 C.3       1 <0>        -0.0052
     29 C22        -0.9942    9.1486   14.7517 C.3       1 <0>        -0.1466
     30 C23         0.0449    8.7557   15.8269 C.3       1 <0>        -0.1452
     31 C24         0.5463    7.3604   15.4106 C.3       1 <0>        -0.0085
     32 Cl1         2.5499   -1.4716    1.8231 Cl        1 <0>        -0.0580
     33 H1         -2.2503    1.1215    0.4398 H         1 <0>         0.0772
     34 H2         -3.2142   -0.3745    0.4037 H         1 <0>         0.0746
     35 H3         -2.3822    0.1123    1.9000 H         1 <0>         0.0657
     36 H4         -1.9719   -1.3288   -1.4531 H         1 <0>         0.1358
     37 H5          0.0184   -2.5960   -2.1510 H         1 <0>         0.1383
     38 H6          2.0112   -2.6603   -0.7079 H         1 <0>         0.1393
     39 H7          0.3003    0.9151    2.4462 H         1 <0>         0.4099
     40 H8          0.1300    1.9853    3.9344 H         1 <0>         0.1395
     41 H9         -0.0288    3.2551    5.9822 H         1 <0>         0.1422
     42 H10        -1.0838   -1.5799    5.9876 H         1 <0>         0.1515
     43 H11        -1.6080    1.3091   11.4759 H         1 <0>         0.4340
     44 H12        -1.0438    3.0015   13.2773 H         1 <0>         0.1450
     45 H13        -3.1082    4.9286   11.9130 H         1 <0>         0.1192
     46 H14        -2.9870    4.5716   13.7184 H         1 <0>         0.1229
     47 H15        -0.7319    5.8157   11.9290 H         1 <0>         0.1408
     48 H16        -1.1411    5.3175   14.9176 H         1 <0>         0.1343
     49 H17         0.4887    5.0079   14.2724 H         1 <0>         0.1356
     50 H18        -1.8022    7.8988   13.1498 H         1 <0>         0.1359
     51 H19        -2.1585    7.2985   14.8020 H         1 <0>         0.1337
     52 H20        -0.5378    9.7738   13.9844 H         1 <0>         0.0982
     53 H21        -1.8467    9.6538   15.2057 H         1 <0>         0.1169
     54 H22         0.8700    9.4678   15.8336 H         1 <0>         0.1053
     55 H23        -0.4255    8.7111   16.8092 H         1 <0>         0.1040
     56 H24         0.3069    6.6331   16.1863 H         1 <0>         0.1310
     57 H25         1.6230    7.3876   15.2430 H         1 <0>         0.1329
     58 H26         0.4126    7.2664   13.3593 H         1 <0>         0.4290
@<TRIPOS>BOND
     1    1    2 1
     2    1   33 1
     3    1   34 1
     4    1   35 1
     5    2    7 ar
     6    2    3 ar
     7    3    4 ar
     8    3   36 1
     9    4    5 ar
    10    4   37 1
    11    5    6 ar
    12    5   38 1
    13    6    7 ar
    14    6   32 1
    15    7    8 1
    16    8    9 am
    17    8   39 1
    18    9   10 2
    19    9   11 1
    20   11   16 ar
    21   11   12 ar
    22   12   13 ar
    23   12   40 1
    24   13   14 ar
    25   13   41 1
    26   14   19 1
    27   14   15 ar
    28   15   16 ar
    29   15   17 1
    30   16   42 1
    31   17   18 1
    32   18   19 2
    33   18   20 1
    34   20   21 am
    35   20   43 1
    36   21   22 2
    37   21   23 1
    38   23   25 1
    39   23   24 1
    40   23   44 1
    41   24   25 1
    42   24   45 1
    43   24   46 1
    44   25   26 1
    45   25   47 1
    46   26   27 1
    47   26   48 1
    48   26   49 1
    49   27   31 1
    50   27   28 1
    51   27   58 1
    52   28   29 1
    53   28   50 1
    54   28   51 1
    55   29   30 1
    56   29   52 1
    57   29   53 1
    58   30   31 1
    59   30   54 1
    60   30   55 1
    61   31   56 1
    62   31   57 1
@<TRIPOS>MOLECULE
CHEMBL68038__2
   58    62     0     0     0
SMALL
USER_CHARGES

@<TRIPOS>ATOM
      1 C1         -2.3214    0.0994    0.8118 C.3       1 <0>        -0.1141
      2 C2         -1.1016   -0.6762    0.3859 C.ar      1 <0>        -0.0628
      3 C3         -1.0990   -1.3545   -0.8177 C.ar      1 <0>        -0.1107
      4 C4          0.0194   -2.0665   -1.2097 C.ar      1 <0>        -0.0924
      5 C5          1.1395   -2.1026   -0.3991 C.ar      1 <0>        -0.1119
      6 C6          1.1439   -1.4261    0.8058 C.ar      1 <0>        -0.0208
      7 C7          0.0226   -0.7051    1.2000 C.ar      1 <0>         0.1352
      8 N1          0.0251   -0.0145    2.4167 N.am      1 <0>        -0.6766
      9 C8         -0.3549   -0.6410    3.5479 C.2       1 <0>         0.5694
     10 O1         -0.6122   -1.8294    3.5278 O.2       1 <0>        -0.5079
     11 C9         -0.4587    0.1146    4.8100 C.ar      1 <0>        -0.1167
     12 C10        -0.1701    1.4863    4.8440 C.ar      1 <0>        -0.0713
     13 C11        -0.2590    2.2000    5.9930 C.ar      1 <0>        -0.0682
     14 C12        -0.6487    1.5837    7.2083 C.ar      1 <0>         0.1278
     15 C13        -0.9349    0.1976    7.1485 C.ar      1 <0>        -0.1618
     16 C14        -0.8521   -0.5251    5.9901 C.ar      1 <0>         0.0098
     17 S1         -1.3695   -0.1718    8.8313 S.3       1 <0>         0.0463
     18 C15        -1.1520    1.4772    9.4855 C.2       1 <0>         0.3637
     19 N2         -0.7816    2.1540    8.4214 N.2       1 <0>        -0.5079
     20 N3         -1.3285    1.9268   10.7822 N.am      1 <0>        -0.6093
     21 C16        -1.1121    3.2231   11.0814 C.2       1 <0>         0.5369
     22 O2         -0.7627    3.9953   10.2141 O.2       1 <0>        -0.4618
     23 C17        -1.3044    3.7127   12.4936 C.3       1 <0>        -0.1596
     24 C18        -0.0565    4.1380   13.2699 C.3       1 <0>        -0.1301
     25 C19        -1.0430    5.1948   12.7691 C.3       1 <0>        -0.1735
     26 C20        -1.9260    5.8864   13.8097 C.3       1 <0>         0.0299
     27 N4         -1.6069    7.3198   13.8478 N.4       1 <0>        -0.3925
     28 C21        -2.0432    7.9753   12.5884 C.3       1 <0>        -0.0080
     29 C22        -2.1707    9.4662   12.9904 C.3       1 <0>        -0.1456
     30 C23        -2.7361    9.3897   14.4272 C.3       1 <0>        -0.1454
     31 C24        -2.3652    7.9825   14.9310 C.3       1 <0>        -0.0081
     32 Cl1         2.5499   -1.4716    1.8231 Cl        1 <0>        -0.0577
     33 H1         -2.2503    1.1215    0.4398 H         1 <0>         0.0771
     34 H2         -3.2142   -0.3745    0.4037 H         1 <0>         0.0745
     35 H3         -2.3822    0.1123    1.9000 H         1 <0>         0.0657
     36 H4         -1.9719   -1.3288   -1.4531 H         1 <0>         0.1358
     37 H5          0.0184   -2.5960   -2.1510 H         1 <0>         0.1383
     38 H6          2.0112   -2.6603   -0.7079 H         1 <0>         0.1393
     39 H7          0.3003    0.9151    2.4462 H         1 <0>         0.4099
     40 H8          0.1300    1.9853    3.9344 H         1 <0>         0.1395
     41 H9         -0.0288    3.2551    5.9822 H         1 <0>         0.1421
     42 H10        -1.0838   -1.5799    5.9876 H         1 <0>         0.1515
     43 H11        -1.6080    1.3091   11.4759 H         1 <0>         0.4341
     44 H12        -2.1057    3.2305   13.0534 H         1 <0>         0.1451
     45 H13        -0.0365    3.9354   14.3407 H         1 <0>         0.1238
     46 H14         0.9036    4.0636   12.7592 H         1 <0>         0.1192
     47 H15        -0.7319    5.8157   11.9290 H         1 <0>         0.1411
     48 H16        -2.9743    5.7545   13.5420 H         1 <0>         0.1346
     49 H17        -1.7435    5.4474   14.7906 H         1 <0>         0.1348
     50 H18        -1.2915    7.8500   11.8091 H         1 <0>         0.1361
     51 H19        -3.0058    7.5810   12.2629 H         1 <0>         0.1344
     52 H20        -1.1949    9.9519   12.9853 H         1 <0>         0.0985
     53 H21        -2.8648    9.9858   12.3299 H         1 <0>         0.1170
     54 H22        -2.2746   10.1506   15.0565 H         1 <0>         0.1056
     55 H23        -3.8190    9.5138   14.4147 H         1 <0>         0.1040
     56 H24        -3.2703    7.4163   15.1508 H         1 <0>         0.1309
     57 H25        -1.7459    8.0593   15.8246 H         1 <0>         0.1333
     58 H26        -0.6161    7.4526   13.9852 H         1 <0>         0.4292
@<TRIPOS>BOND
     1    1    2 1
     2    1   33 1
     3    1   34 1
     4    1   35 1
     5    2    7 ar
     6    2    3 ar
     7    3    4 ar
     8    3   36 1
     9    4    5 ar
    10    4   37 1
    11    5    6 ar
    12    5   38 1
    13    6    7 ar
    14    6   32 1
    15    7    8 1
    16    8    9 am
    17    8   39 1
    18    9   10 2
    19    9   11 1
    20   11   16 ar
    21   11   12 ar
    22   12   13 ar
    23   12   40 1
    24   13   14 ar
    25   13   41 1
    26   14   19 1
    27   14   15 ar
    28   15   16 ar
    29   15   17 1
    30   16   42 1
    31   17   18 1
    32   18   19 2
    33   18   20 1
    34   20   21 am
    35   20   43 1
    36   21   22 2
    37   21   23 1
    38   23   25 1
    39   23   24 1
    40   23   44 1
    41   24   25 1
    42   24   45 1
    43   24   46 1
    44   25   26 1
    45   25   47 1
    46   26   27 1
    47   26   48 1
    48   26   49 1
    49   27   31 1
    50   27   28 1
    51   27   58 1
    52   28   29 1
    53   28   50 1
    54   28   51 1
    55   29   30 1
    56   29   52 1
    57   29   53 1
    58   30   31 1
    59   30   54 1
    60   30   55 1
    61   31   56 1
    62   31   57 1
@<TRIPOS>MOLECULE
CHEMBL68038__3
   58    62     0     0     0
SMALL
USER_CHARGES

@<TRIPOS>ATOM
      1 C1         -2.3214    0.0994    0.8118 C.3       1 <0>        -0.1140
      2 C2         -1.1016   -0.6762    0.3859 C.ar      1 <0>        -0.0627
      3 C3         -1.0990   -1.3545   -0.8177 C.ar      1 <0>        -0.1105
      4 C4          0.0194   -2.0665   -1.2097 C.ar      1 <0>        -0.0920
      5 C5          1.1395   -2.1026   -0.3991 C.ar      1 <0>        -0.1118
      6 C6          1.1439   -1.4261    0.8058 C.ar      1 <0>        -0.0206
      7 C7          0.0226   -0.7051    1.2000 C.ar      1 <0>         0.1345
      8 N1          0.0251   -0.0145    2.4167 N.am      1 <0>        -0.6762
      9 C8         -0.3549   -0.6410    3.5479 C.2       1 <0>         0.5687
     10 O1         -0.6122   -1.8294    3.5278 O.2       1 <0>        -0.5069
     11 C9         -0.4587    0.1146    4.8100 C.ar      1 <0>        -0.1152
     12 C10        -0.1701    1.4863    4.8440 C.ar      1 <0>        -0.0714
     13 C11        -0.2590    2.2000    5.9930 C.ar      1 <0>        -0.0684
     14 C12        -0.6487    1.5837    7.2083 C.ar      1 <0>         0.1260
     15 C13        -0.9349    0.1976    7.1485 C.ar      1 <0>        -0.1616
     16 C14        -0.8521   -0.5251    5.9901 C.ar      1 <0>         0.0100
     17 S1         -1.3695   -0.1718    8.8313 S.3       1 <0>         0.0520
     18 C15        -1.1520    1.4772    9.4855 C.2       1 <0>         0.3607
     19 N2         -0.7816    2.1540    8.4214 N.2       1 <0>        -0.5076
     20 N3         -1.3285    1.9268   10.7822 N.am      1 <0>        -0.6060
     21 C16        -1.1121    3.2231   11.0814 C.2       1 <0>         0.5432
     22 O2         -0.7627    3.9953   10.2141 O.2       1 <0>        -0.4793
     23 C17        -1.3044    3.7127   12.4936 C.3       1 <0>        -0.1644
     24 C18        -0.0565    4.1380   13.2699 C.3       1 <0>        -0.1323
     25 C19        -1.0430    5.1948   12.7691 C.3       1 <0>        -0.1635
     26 C20        -0.6063    6.0663   11.5898 C.3       1 <0>         0.0320
     27 N4         -0.5213    7.4678   12.0217 N.4       1 <0>        -0.3945
     28 C21         0.6081    7.6439   12.9702 C.3       1 <0>        -0.0054
     29 C22         0.9142    9.1600   12.8795 C.3       1 <0>        -0.1460
     30 C23         0.6975    9.4673   11.3800 C.3       1 <0>        -0.1450
     31 C24        -0.2173    8.3400   10.8665 C.3       1 <0>        -0.0071
     32 Cl1         2.5499   -1.4716    1.8231 Cl        1 <0>        -0.0580
     33 H1         -2.2503    1.1215    0.4398 H         1 <0>         0.0770
     34 H2         -3.2142   -0.3745    0.4037 H         1 <0>         0.0748
     35 H3         -2.3822    0.1123    1.9000 H         1 <0>         0.0654
     36 H4         -1.9719   -1.3288   -1.4531 H         1 <0>         0.1360
     37 H5          0.0184   -2.5960   -2.1510 H         1 <0>         0.1386
     38 H6          2.0112   -2.6603   -0.7079 H         1 <0>         0.1395
     39 H7          0.3003    0.9151    2.4462 H         1 <0>         0.4095
     40 H8          0.1300    1.9853    3.9344 H         1 <0>         0.1395
     41 H9         -0.0288    3.2551    5.9822 H         1 <0>         0.1409
     42 H10        -1.0838   -1.5799    5.9876 H         1 <0>         0.1520
     43 H11        -1.6080    1.3091   11.4759 H         1 <0>         0.4363
     44 H12        -2.1057    3.2305   13.0534 H         1 <0>         0.1503
     45 H13        -0.0365    3.9354   14.3407 H         1 <0>         0.1283
     46 H14         0.9036    4.0636   12.7592 H         1 <0>         0.1143
     47 H15        -1.6720    5.6875   13.5105 H         1 <0>         0.1389
     48 H16         0.3699    5.7355   11.2354 H         1 <0>         0.1356
     49 H17        -1.3346    5.9781   10.7836 H         1 <0>         0.1441
     50 H18         0.3067    7.3721   13.9819 H         1 <0>         0.1342
     51 H19         1.4709    7.0576   12.6541 H         1 <0>         0.1316
     52 H20         0.2191    9.7313   13.4947 H         1 <0>         0.0973
     53 H21         1.9449    9.3634   13.1699 H         1 <0>         0.1154
     54 H22         0.2103   10.4347   11.2586 H         1 <0>         0.1045
     55 H23         1.6496    9.4531   10.8495 H         1 <0>         0.1031
     56 H24         0.2964    7.7676   10.0942 H         1 <0>         0.1312
     57 H25        -1.1394    8.7627   10.4676 H         1 <0>         0.1314
     58 H26        -1.3875    7.7523   12.4540 H         1 <0>         0.4239
@<TRIPOS>BOND
     1    1    2 1
     2    1   33 1
     3    1   34 1
     4    1   35 1
     5    2    7 ar
     6    2    3 ar
     7    3    4 ar
     8    3   36 1
     9    4    5 ar
    10    4   37 1
    11    5    6 ar
    12    5   38 1
    13    6    7 ar
    14    6   32 1
    15    7    8 1
    16    8    9 am
    17    8   39 1
    18    9   10 2
    19    9   11 1
    20   11   16 ar
    21   11   12 ar
    22   12   13 ar
    23   12   40 1
    24   13   14 ar
    25   13   41 1
    26   14   19 1
    27   14   15 ar
    28   15   16 ar
    29   15   17 1
    30   16   42 1
    31   17   18 1
    32   18   19 2
    33   18   20 1
    34   20   21 am
    35   20   43 1
    36   21   22 2
    37   21   23 1
    38   23   25 1
    39   23   24 1
    40   23   44 1
    41   24   25 1
    42   24   45 1
    43   24   46 1
    44   25   26 1
    45   25   47 1
    46   26   27 1
    47   26   48 1
    48   26   49 1
    49   27   31 1
    50   27   28 1
    51   27   58 1
    52   28   29 1
    53   28   50 1
    54   28   51 1
    55   29   30 1
    56   29   52 1
    57   29   53 1
    58   30   31 1
    59   30   54 1
    60   30   55 1
    61   31   56 1
    62   31   57 1
@<TRIPOS>MOLECULE
CHEMBL939
   55    58     0     0     0
SMALL
USER_CHARGES

@<TRIPOS>ATOM
      1 C1         -0.7374    1.4118    0.5253 C.3       1 <0>         0.0199
      2 O1         -0.7263   -0.0171    0.5247 O.3       1 <0>        -0.2961
      3 C2          0.0734   -0.6280    1.4373 C.ar      1 <0>         0.1647
      4 C3          0.8188    0.1348    2.3090 C.ar      1 <0>        -0.1833
      5 C4          1.6420   -0.4976    3.2485 C.ar      1 <0>         0.2017
      6 C5          1.6952   -1.9130    3.2874 C.ar      1 <0>        -0.1805
      7 C6          0.9277   -2.6653    2.3903 C.ar      1 <0>        -0.1504
      8 C7          0.1268   -2.0280    1.4855 C.ar      1 <0>         0.1167
      9 O2         -0.6229   -2.7597    0.6185 O.3       1 <0>        -0.2957
     10 C8         -0.5255   -4.1819    0.7171 C.3       1 <0>         0.0569
     11 C9         -1.4334   -4.8292   -0.3307 C.3       1 <0>        -0.1162
     12 C10        -1.3291   -6.3519   -0.2252 C.3       1 <0>         0.0590
     13 N1         -2.2008   -6.9733   -1.2311 N.3       1 <0>        -0.5361
     14 C11        -3.6165   -6.7053   -0.9393 C.3       1 <0>         0.0126
     15 C12        -4.4841   -7.3184   -2.0416 C.3       1 <0>         0.0623
     16 O3         -4.2065   -8.7181   -2.1368 O.3       1 <0>        -0.3850
     17 C13        -2.8368   -9.0154   -2.4209 C.3       1 <0>         0.0626
     18 C14        -1.9524   -8.4195   -1.3224 C.3       1 <0>         0.0175
     19 C15         2.5361   -2.5234    4.2482 C.ar      1 <0>         0.4639
     20 N2          3.2308   -1.7396    5.0625 N.ar      1 <0>        -0.5813
     21 C16         3.1493   -0.4206    4.9892 C.ar      1 <0>         0.3427
     22 N3          2.3876    0.1999    4.1200 N.ar      1 <0>        -0.5394
     23 N4          2.6306   -3.8977    4.3362 N.pl3     1 <0>        -0.6396
     24 C17         3.3713   -4.4833    5.3684 C.ar      1 <0>         0.1586
     25 C18         3.4039   -3.8902    6.6240 C.ar      1 <0>        -0.0764
     26 C19         4.1353   -4.4698    7.6421 C.ar      1 <0>        -0.1191
     27 C20         4.8362   -5.6416    7.4124 C.ar      1 <0>         0.0961
     28 C21         4.8054   -6.2354    6.1608 C.ar      1 <0>        -0.0542
     29 C22         4.0703   -5.6613    5.1406 C.ar      1 <0>        -0.1133
     30 Cl1         5.6852   -7.7046    5.8756 Cl        1 <0>        -0.0422
     31 F1          5.5513   -6.2065    8.4097 F         1 <0>        -0.1250
     32 H1          0.2683    1.7831    0.3285 H         1 <0>         0.0625
     33 H2         -1.4151    1.7702   -0.2495 H         1 <0>         0.1078
     34 H3         -1.0740    1.7722    1.4974 H         1 <0>         0.0624
     35 H4          0.7687    1.2128    2.2678 H         1 <0>         0.1567
     36 H5          0.9651   -3.7443    2.4164 H         1 <0>         0.1382
     37 H6          0.5060   -4.4884    0.5431 H         1 <0>         0.0655
     38 H7         -0.8359   -4.4993    1.7126 H         1 <0>         0.0633
     39 H8         -2.4649   -4.5227   -0.1568 H         1 <0>         0.0772
     40 H9         -1.1230   -4.5118   -1.3262 H         1 <0>         0.0870
     41 H10        -0.2976   -6.6584   -0.3991 H         1 <0>         0.0806
     42 H11        -1.6394   -6.6693    0.7704 H         1 <0>         0.0394
     43 H12        -3.8805   -7.1489    0.0207 H         1 <0>         0.0445
     44 H13        -3.7829   -5.6288   -0.9016 H         1 <0>         0.0906
     45 H14        -5.5369   -7.1717   -1.8001 H         1 <0>         0.0996
     46 H15        -4.2579   -6.8370   -2.9930 H         1 <0>         0.0614
     47 H16        -2.6980  -10.0960   -2.4536 H         1 <0>         0.0999
     48 H17        -2.5626   -8.5833   -3.3833 H         1 <0>         0.0613
     49 H18        -0.9041   -8.5942   -1.5643 H         1 <0>         0.0880
     50 H19        -2.1898   -8.8905   -0.3685 H         1 <0>         0.0446
     51 H20         3.7361    0.1714    5.6759 H         1 <0>         0.1991
     52 H21         2.1833   -4.4574    3.6823 H         1 <0>         0.4215
     53 H22         2.8578   -2.9760    6.8040 H         1 <0>         0.1516
     54 H23         4.1608   -4.0084    8.6183 H         1 <0>         0.1509
     55 H24         4.0430   -6.1262    4.1662 H         1 <0>         0.1452
@<TRIPOS>BOND
     1    1    2 1
     2    1   32 1
     3    1   33 1
     4    1   34 1
     5    2    3 1
     6    3    8 ar
     7    3    4 ar
     8    4    5 ar
     9    4   35 1
    10    5   22 ar
    11    5    6 ar
    12    6    7 ar
    13    6   19 ar
    14    7    8 ar
    15    7   36 1
    16    8    9 1
    17    9   10 1
    18   10   11 1
    19   10   37 1
    20   10   38 1
    21   11   12 1
    22   11   39 1
    23   11   40 1
    24   12   13 1
    25   12   41 1
    26   12   42 1
    27   13   18 1
    28   13   14 1
    29   14   15 1
    30   14   43 1
    31   14   44 1
    32   15   16 1
    33   15   45 1
    34   15   46 1
    35   16   17 1
    36   17   18 1
    37   17   47 1
    38   17   48 1
    39   18   49 1
    40   18   50 1
    41   19   20 ar
    42   19   23 1
    43   20   21 ar
    44   21   22 ar
    45   21   51 1
    46   23   24 1
    47   23   52 1
    48   24   29 ar
    49   24   25 ar
    50   25   26 ar
    51   25   53 1
    52   26   27 ar
    53   26   54 1
    54   27   28 ar
    55   27   31 1
    56   28   29 ar
    57   28   30 1
    58   29   55 1
@<TRIPOS>MOLECULE
CHEMBL939__1
   56    59     0     0     0
SMALL
USER_CHARGES

@<TRIPOS>ATOM
      1 C1         -0.1036    1.4281   -0.8716 C.3       1 <0>         0.0186
      2 O1         -0.0864   -0.0007   -0.8902 O.3       1 <0>        -0.3003
      3 C2         -1.2669   -0.6347   -0.6663 C.ar      1 <0>         0.1640
      4 C3         -2.4061    0.1062   -0.4415 C.ar      1 <0>        -0.1773
      5 C4         -3.6213   -0.5499   -0.2110 C.ar      1 <0>         0.2081
      6 C5         -3.6596   -1.9664   -0.2127 C.ar      1 <0>        -0.1866
      7 C6         -2.4874   -2.6960   -0.4438 C.ar      1 <0>        -0.1410
      8 C7         -1.3135   -2.0356   -0.6722 C.ar      1 <0>         0.1055
      9 O2         -0.1766   -2.7453   -0.9024 O.3       1 <0>        -0.2964
     10 C8         -0.2885   -4.1699   -0.8958 C.3       1 <0>         0.0582
     11 C9          1.0827   -4.7904   -1.1710 C.3       1 <0>        -0.1507
     12 C10         0.9629   -6.3157   -1.1638 C.3       1 <0>        -0.0061
     13 N1          2.2794   -6.9115   -1.4281 N.4       1 <0>        -0.3843
     14 C11         2.7109   -6.5628   -2.7887 C.3       1 <0>        -0.0502
     15 C12         4.0828   -7.1845   -3.0614 C.3       1 <0>         0.0361
     16 O3          4.0024   -8.6014   -2.8827 O.3       1 <0>        -0.3560
     17 C13         3.5627   -8.9912   -1.5786 C.3       1 <0>         0.0354
     18 C14         2.1898   -8.3728   -1.3031 C.3       1 <0>        -0.0434
     19 C15        -4.9024   -2.6011    0.0227 C.ar      1 <0>         0.4653
     20 N2         -5.9670   -1.8378    0.2328 N.ar      1 <0>        -0.5778
     21 C16        -5.8833   -0.5169    0.2252 C.ar      1 <0>         0.3524
     22 N3         -4.7596    0.1255    0.0127 N.ar      1 <0>        -0.5386
     23 N4         -5.0044   -3.9776    0.0331 N.pl3     1 <0>        -0.6387
     24 C17        -6.2593   -4.5852    0.1467 C.ar      1 <0>         0.1519
     25 C18        -7.3723   -3.9975   -0.4410 C.ar      1 <0>        -0.0748
     26 C19        -8.6105   -4.5989   -0.3284 C.ar      1 <0>        -0.1180
     27 C20        -8.7435   -5.7871    0.3699 C.ar      1 <0>         0.1015
     28 C21        -7.6350   -6.3755    0.9572 C.ar      1 <0>        -0.0560
     29 C22        -6.3931   -5.7795    0.8422 C.ar      1 <0>        -0.1129
     30 Cl1        -7.8048   -7.8653    1.8321 Cl        1 <0>        -0.0393
     31 F1         -9.9558   -6.3732    0.4792 F         1 <0>        -0.1218
     32 H1          0.9005    1.8061   -1.0638 H         1 <0>         0.1098
     33 H2         -0.7830    1.7934   -1.6418 H         1 <0>         0.0650
     34 H3         -0.4416    1.7747    0.1051 H         1 <0>         0.0650
     35 H4         -2.3623    1.1853   -0.4426 H         1 <0>         0.1599
     36 H5         -2.5118   -3.7757   -0.4461 H         1 <0>         0.1357
     37 H6         -0.6485   -4.5015    0.0781 H         1 <0>         0.0738
     38 H7         -0.9906   -4.4828   -1.6686 H         1 <0>         0.0739
     39 H8          1.4428   -4.4588   -2.1449 H         1 <0>         0.1012
     40 H9          1.7848   -4.4775   -0.3982 H         1 <0>         0.1020
     41 H10         0.6028   -6.6473   -0.1899 H         1 <0>         0.1374
     42 H11         0.2608   -6.6286   -1.9366 H         1 <0>         0.1353
     43 H12         1.9882   -6.9465   -3.5089 H         1 <0>         0.1406
     44 H13         2.7777   -5.4789   -2.8824 H         1 <0>         0.1449
     45 H14         4.3857   -6.9634   -4.0849 H         1 <0>         0.1430
     46 H15         4.8143   -6.7710   -2.3672 H         1 <0>         0.0823
     47 H16         3.4892  -10.0776   -1.5289 H         1 <0>         0.1432
     48 H17         4.2765   -8.6395   -0.8337 H         1 <0>         0.0821
     49 H18         1.8699   -8.6326   -0.2940 H         1 <0>         0.1439
     50 H19         1.4673   -8.7558   -2.0238 H         1 <0>         0.1401
     51 H20        -6.7805    0.0578    0.4018 H         1 <0>         0.2031
     52 H21        -4.2058   -4.5236   -0.0384 H         1 <0>         0.4178
     53 H22        -7.2695   -3.0705   -0.9855 H         1 <0>         0.1515
     54 H23        -9.4758   -4.1417   -0.7851 H         1 <0>         0.1531
     55 H24        -5.5283   -6.2402    1.2964 H         1 <0>         0.1430
     56 H25         2.9489   -6.5572   -0.7615 H         1 <0>         0.4250
@<TRIPOS>BOND
     1    1    2 1
     2    1   32 1
     3    1   33 1
     4    1   34 1
     5    2    3 1
     6    3    8 ar
     7    3    4 ar
     8    4    5 ar
     9    4   35 1
    10    5   22 ar
    11    5    6 ar
    12    6    7 ar
    13    6   19 ar
    14    7    8 ar
    15    7   36 1
    16    8    9 1
    17    9   10 1
    18   10   11 1
    19   10   37 1
    20   10   38 1
    21   11   12 1
    22   11   39 1
    23   11   40 1
    24   12   13 1
    25   12   41 1
    26   12   42 1
    27   13   18 1
    28   13   14 1
    29   13   56 1
    30   14   15 1
    31   14   43 1
    32   14   44 1
    33   15   16 1
    34   15   45 1
    35   15   46 1
    36   16   17 1
    37   17   18 1
    38   17   47 1
    39   17   48 1
    40   18   49 1
    41   18   50 1
    42   19   20 ar
    43   19   23 1
    44   20   21 ar
    45   21   22 ar
    46   21   51 1
    47   23   24 1
    48   23   52 1
    49   24   29 ar
    50   24   25 ar
    51   25   26 ar
    52   25   53 1
    53   26   27 ar
    54   26   54 1
    55   27   28 ar
    56   27   31 1
    57   28   29 ar
    58   28   30 1
    59   29   55 1
@<TRIPOS>MOLECULE
CHEMBL188993
   34    37     0     0     0
SMALL
USER_CHARGES

@<TRIPOS>ATOM
      1 C1          2.5274   -1.2068    1.7736 C.3       1 <0>        -0.1129
      2 C2          1.3295   -1.3301    0.8675 C.ar      1 <0>        -0.0560
      3 C3          1.4253   -2.0428   -0.3121 C.ar      1 <0>        -0.1113
      4 C4          0.3273   -2.1564   -1.1446 C.ar      1 <0>        -0.0922
      5 C5         -0.8709   -1.5576   -0.7999 C.ar      1 <0>        -0.1129
      6 C6         -0.9739   -0.8433    0.3784 C.ar      1 <0>        -0.0184
      7 C7          0.1270   -0.7323    1.2202 C.ar      1 <0>         0.1479
      8 N1          0.0252   -0.0151    2.4162 N.pl3     1 <0>        -0.6440
      9 C8         -0.3645   -0.6575    3.5762 C.2       1 <0>         0.5035
     10 C9         -0.4732    0.0922    4.8263 C.2       1 <0>        -0.0771
     11 C10        -0.2686    1.3934    5.1762 C.2       1 <0>         0.0501
     12 N2         -0.5264    1.5084    6.4811 N.2       1 <0>        -0.4660
     13 C11        -0.8822    0.3448    6.9664 C.2       1 <0>         0.2120
     14 N3         -0.8649   -0.5674    5.9786 N.pl3     1 <0>        -0.3711
     15 C12        -1.1414   -1.9226    5.9068 C.ar      1 <0>         0.0876
     16 C13        -1.5395   -2.6396    7.0291 C.ar      1 <0>        -0.1580
     17 C14        -1.8029   -3.9886    6.9008 C.ar      1 <0>         0.0963
     18 N4         -1.6824   -4.6015    5.7367 N.ar      1 <0>        -0.4653
     19 C15        -1.3090   -3.9695    4.6439 C.ar      1 <0>         0.1452
     20 C16        -1.0222   -2.6012    4.6810 C.ar      1 <0>         0.0990
     21 N5         -0.6432   -1.9438    3.5548 N.2       1 <0>        -0.5390
     22 Cl1        -2.4779   -0.0915    0.8104 Cl        1 <0>        -0.0588
     23 H1          2.5336   -2.0349    2.4824 H         1 <0>         0.0743
     24 H2          3.4389   -1.2329    1.1765 H         1 <0>         0.0733
     25 H3          2.4761   -0.2635    2.3173 H         1 <0>         0.0667
     26 H4          2.3593   -2.5117   -0.5845 H         1 <0>         0.1342
     27 H5          0.4056   -2.7136   -2.0664 H         1 <0>         0.1365
     28 H6         -1.7267   -1.6483   -1.4524 H         1 <0>         0.1376
     29 H7          0.2280    0.9333    2.4318 H         1 <0>         0.4237
     30 H8          0.0459    2.1886    4.5166 H         1 <0>         0.1872
     31 H9         -1.1465    0.1493    7.9951 H         1 <0>         0.2200
     32 H10        -1.6408   -2.1493    7.9860 H         1 <0>         0.1446
     33 H11        -2.1128   -4.5533    7.7677 H         1 <0>         0.1686
     34 H12        -1.2234   -4.5110    3.7134 H         1 <0>         0.1749
@<TRIPOS>BOND
     1    1    2 1
     2    1   23 1
     3    1   24 1
     4    1   25 1
     5    2    7 ar
     6    2    3 ar
     7    3    4 ar
     8    3   26 1
     9    4    5 ar
    10    4   27 1
    11    5    6 ar
    12    5   28 1
    13    6    7 ar
    14    6   22 1
    15    7    8 1
    16    8    9 1
    17    8   29 1
    18    9   21 2
    19    9   10 1
    20   10   14 1
    21   10   11 2
    22   11   12 1
    23   11   30 1
    24   12   13 2
    25   13   14 1
    26   13   31 1
    27   14   15 1
    28   15   20 ar
    29   15   16 ar
    30   16   17 ar
    31   16   32 1
    32   17   18 ar
    33   17   33 1
    34   18   19 ar
    35   19   20 ar
    36   19   34 1
    37   20   21 1
@<TRIPOS>MOLECULE
CHEMBL304399
   51    54     0     0     0
SMALL
USER_CHARGES

@<TRIPOS>ATOM
      1 C1         -1.1488    0.1396   -1.3470 C.3       1 <0>        -0.1181
      2 C2         -0.2133   -0.2857   -0.2448 C.ar      1 <0>        -0.0654
      3 C3          0.2798   -1.5771   -0.2165 C.ar      1 <0>        -0.1200
      4 C4          1.1378   -1.9672    0.7944 C.ar      1 <0>        -0.1096
      5 C5          1.5033   -1.0659    1.7771 C.ar      1 <0>        -0.1247
      6 C6          1.0111    0.2252    1.7483 C.ar      1 <0>        -0.0995
      7 C7          0.1562    0.6167    0.7346 C.ar      1 <0>        -0.0798
      8 C8         -0.3763    2.0261    0.7003 C.3       1 <0>        -0.0941
      9 C9         -1.7248    2.0701    1.3716 C.2       1 <0>         0.5062
     10 O1         -2.2059    1.0569    1.8326 O.2       1 <0>        -0.4464
     11 N1         -2.3960    3.2355    1.4598 N.am      1 <0>        -0.6195
     12 C10        -3.6342    3.2759    2.0763 C.2       1 <0>         0.3849
     13 N2         -4.3095    2.2962    2.6346 N.2       1 <0>        -0.5143
     14 C11        -5.5165    2.4791    3.2042 C.ar      1 <0>         0.1398
     15 C12        -6.3391    1.5118    3.8338 C.ar      1 <0>        -0.0730
     16 C13        -7.5390    1.8527    4.3642 C.ar      1 <0>        -0.0703
     17 C14        -8.0145    3.1707    4.3121 C.ar      1 <0>        -0.1291
     18 C15        -7.2286    4.1515    3.6980 C.ar      1 <0>         0.0134
     19 C16        -6.0183    3.8032    3.1645 C.ar      1 <0>        -0.1680
     20 S1         -4.7187    4.6750    2.3228 S.3       1 <0>         0.0258
     21 C17        -9.3238    3.5176    4.8953 C.2       1 <0>         0.5736
     22 O2         -9.7275    4.6636    4.8450 O.2       1 <0>        -0.5133
     23 N3        -10.0730    2.5645    5.4842 N.am      1 <0>        -0.6792
     24 C18       -11.2648    2.9110    6.1297 C.ar      1 <0>         0.1396
     25 C19       -12.4714    2.8459    5.4453 C.ar      1 <0>        -0.0616
     26 C20       -13.6463    3.1887    6.0852 C.ar      1 <0>        -0.1112
     27 C21       -13.6227    3.5970    7.4064 C.ar      1 <0>        -0.0951
     28 C22       -12.4236    3.6632    8.0915 C.ar      1 <0>        -0.1124
     29 C23       -11.2447    3.3157    7.4590 C.ar      1 <0>        -0.0237
     30 Cl1        -9.7402    3.3921    8.3217 Cl        1 <0>        -0.0575
     31 C24       -12.4987    2.4022    4.0053 C.3       1 <0>        -0.1145
     32 H1         -0.5703    0.5321   -2.1833 H         1 <0>         0.0739
     33 H2         -1.7322   -0.7188   -1.6800 H         1 <0>         0.0699
     34 H3         -1.8206    0.9132   -0.9751 H         1 <0>         0.0604
     35 H4         -0.0058   -2.2811   -0.9841 H         1 <0>         0.1232
     36 H5          1.5224   -2.9761    0.8169 H         1 <0>         0.1231
     37 H6          2.1732   -1.3710    2.5674 H         1 <0>         0.1233
     38 H7          1.2964    0.9292    2.5161 H         1 <0>         0.1213
     39 H8          0.3127    2.6877    1.2253 H         1 <0>         0.1124
     40 H9         -0.4751    2.3520   -0.3351 H         1 <0>         0.1131
     41 H10        -2.0111    4.0459    1.0911 H         1 <0>         0.4313
     42 H11        -6.0047    0.4865    3.8915 H         1 <0>         0.1419
     43 H12        -8.1423    1.0921    4.8373 H         1 <0>         0.1365
     44 H13        -7.5738    5.1735    3.6461 H         1 <0>         0.1484
     45 H14        -9.7859    1.6382    5.4604 H         1 <0>         0.4104
     46 H15       -14.5848    3.1382    5.5532 H         1 <0>         0.1347
     47 H16       -14.5430    3.8652    7.9039 H         1 <0>         0.1369
     48 H17       -12.4086    3.9825    9.1232 H         1 <0>         0.1383
     49 H18       -12.6244    1.3204    3.9609 H         1 <0>         0.0766
     50 H19       -13.3295    2.8859    3.4917 H         1 <0>         0.0736
     51 H20       -11.5619    2.6793    3.5219 H         1 <0>         0.0681
@<TRIPOS>BOND
     1    1    2 1
     2    1   32 1
     3    1   33 1
     4    1   34 1
     5    2    7 ar
     6    2    3 ar
     7    3    4 ar
     8    3   35 1
     9    4    5 ar
    10    4   36 1
    11    5    6 ar
    12    5   37 1
    13    6    7 ar
    14    6   38 1
    15    7    8 1
    16    8    9 1
    17    8   39 1
    18    8   40 1
    19    9   10 2
    20    9   11 am
    21   11   12 1
    22   11   41 1
    23   12   20 1
    24   12   13 2
    25   13   14 1
    26   14   19 ar
    27   14   15 ar
    28   15   16 ar
    29   15   42 1
    30   16   17 ar
    31   16   43 1
    32   17   18 ar
    33   17   21 1
    34   18   19 ar
    35   18   44 1
    36   19   20 1
    37   21   22 2
    38   21   23 am
    39   23   24 1
    40   23   45 1
    41   24   29 ar
    42   24   25 ar
    43   25   26 ar
    44   25   31 1
    45   26   27 ar
    46   26   46 1
    47   27   28 ar
    48   27   47 1
    49   28   29 ar
    50   28   48 1
    51   29   30 1
    52   31   49 1
    53   31   50 1
    54   31   51 1
@<TRIPOS>MOLECULE
CHEMBL413118
   25    26     0     0     0
SMALL
USER_CHARGES

@<TRIPOS>ATOM
      1 C1         -0.0173    1.4248    0.0099 C.3       1 <0>         0.0306
      2 O1          0.0021   -0.0041    0.0020 O.3       1 <0>        -0.3280
      3 C2          0.6006   -0.6019   -1.0466 C.2       1 <0>         0.5230
      4 O2          1.0926    0.0713   -1.9301 O.2       1 <0>        -0.4975
      5 C3          0.6586   -2.0760   -1.1221 C.ar      1 <0>         0.0671
      6 C4          1.2824   -2.6750   -2.2038 C.ar      1 <0>        -0.0686
      7 C5          1.3283   -4.0784   -2.2593 C.ar      1 <0>        -0.0337
      8 C6          1.9417   -4.7597   -3.3204 C.ar      1 <0>        -0.0877
      9 C7          1.9612   -6.1222   -3.3296 C.ar      1 <0>        -0.1087
     10 C8          1.3783   -6.8563   -2.2960 C.ar      1 <0>         0.0973
     11 C9          0.7643   -6.2176   -1.2331 C.ar      1 <0>         0.1056
     12 C10         0.7309   -4.8137   -1.2002 C.ar      1 <0>        -0.1028
     13 C11         0.1214   -4.1117   -0.1451 C.ar      1 <0>         0.1564
     14 N1          0.1127   -2.8030   -0.1420 N.ar      1 <0>        -0.4429
     15 O3          0.1990   -6.9412   -0.2314 O.3       1 <0>        -0.4756
     16 O4          1.4136   -8.2148   -2.3339 O.3       1 <0>        -0.4831
     17 H1          1.0053    1.8021    0.0021 H         1 <0>         0.0627
     18 H2         -0.5445    1.7859   -0.8732 H         1 <0>         0.0628
     19 H3         -0.5275    1.7763    0.9067 H         1 <0>         0.1066
     20 H4          1.7234   -2.0769   -2.9875 H         1 <0>         0.1598
     21 H5          2.3971   -4.2061   -4.1282 H         1 <0>         0.1465
     22 H6          2.4347   -6.6417   -4.1495 H         1 <0>         0.1448
     23 H7         -0.3377   -4.6546    0.6678 H         1 <0>         0.1779
     24 H8          0.8023   -7.1430    0.4969 H         1 <0>         0.3938
     25 H9          2.1909   -8.6001   -1.9068 H         1 <0>         0.3935
@<TRIPOS>BOND
     1    1    2 1
     2    1   17 1
     3    1   18 1
     4    1   19 1
     5    2    3 1
     6    3    4 2
     7    3    5 1
     8    5   14 ar
     9    5    6 ar
    10    6    7 ar
    11    6   20 1
    12    7   12 ar
    13    7    8 ar
    14    8    9 ar
    15    8   21 1
    16    9   10 ar
    17    9   22 1
    18   10   11 ar
    19   10   16 1
    20   11   12 ar
    21   11   15 1
    22   12   13 ar
    23   13   14 ar
    24   13   23 1
    25   15   24 1
    26   16   25 1
@<TRIPOS>MOLECULE
CHEMBL217195
   50    52     0     0     0
SMALL
USER_CHARGES

@<TRIPOS>ATOM
      1 C1          0.1221    1.3950   -0.0515 C.3       1 <0>        -0.1153
      2 C2          0.0601   -0.1107   -0.0485 C.ar      1 <0>        -0.0783
      3 C3          0.7157   -0.8301   -1.0308 C.ar      1 <0>        -0.1181
      4 C4          0.6604   -2.2101   -1.0312 C.ar      1 <0>        -0.0834
      5 C5         -0.0542   -2.8753   -0.0433 C.ar      1 <0>         0.1260
      6 C6         -0.7111   -2.1497    0.9421 C.ar      1 <0>        -0.0586
      7 C7         -0.6476   -0.7701    0.9398 C.ar      1 <0>        -0.1177
      8 C8         -1.4880   -2.8672    2.0157 C.3       1 <0>        -0.1079
      9 N1         -0.1125   -4.2724   -0.0411 N.am      1 <0>        -0.6717
     10 C9          0.2938   -4.9621    1.0432 C.2       1 <0>         0.6182
     11 O1          0.6151   -4.3690    2.0568 O.2       1 <0>        -0.5043
     12 C10         0.3488   -6.4233    1.0023 C.2       1 <0>        -0.3458
     13 C11         0.7252   -7.3244    1.9886 C.2       1 <0>         0.1887
     14 N2          0.6760   -8.5925    1.6670 N.2       1 <0>        -0.5600
     15 C12         0.2882   -8.9857    0.4674 C.2       1 <0>         0.2824
     16 S1         -0.0574   -7.5434   -0.3279 S.3       1 <0>         0.2722
     17 N3          0.1852  -10.2770   -0.0183 N.am      1 <0>        -0.6155
     18 C13        -0.2328  -10.4904   -1.2817 C.2       1 <0>         0.7074
     19 O2         -0.5193   -9.5482   -1.9945 O.2       1 <0>        -0.5335
     20 N4         -0.3332  -11.7484   -1.7550 N.am      1 <0>        -0.6670
     21 C14        -0.8588  -11.9758   -3.0317 C.ar      1 <0>         0.1484
     22 C15        -1.6349  -13.1015   -3.2743 C.ar      1 <0>        -0.1384
     23 C16        -2.1522  -13.3231   -4.5356 C.ar      1 <0>        -0.1009
     24 C17        -1.8977  -12.4257   -5.5564 C.ar      1 <0>        -0.1275
     25 C18        -1.1253  -11.3037   -5.3180 C.ar      1 <0>        -0.1008
     26 C19        -0.6103  -11.0732   -4.0574 C.ar      1 <0>        -0.1162
     27 C20         1.1671   -6.8678    3.3551 C.3       1 <0>        -0.0901
     28 C21         1.3743   -2.9932   -2.1027 C.3       1 <0>        -0.1125
     29 H1          0.9827    1.7244    0.5308 H         1 <0>         0.0715
     30 H2          0.2187    1.7527   -1.0766 H         1 <0>         0.0668
     31 H3         -0.7901    1.7971    0.3892 H         1 <0>         0.0670
     32 H4          1.2711   -0.3123   -1.7987 H         1 <0>         0.1258
     33 H5         -1.1545   -0.2054    1.7083 H         1 <0>         0.1254
     34 H6         -0.8705   -2.9624    2.9089 H         1 <0>         0.0862
     35 H7         -2.3873   -2.2994    2.2545 H         1 <0>         0.0611
     36 H8         -1.7681   -3.8588    1.6603 H         1 <0>         0.0563
     37 H9         -0.4453   -4.7452   -0.8199 H         1 <0>         0.4050
     38 H10         0.4138  -11.0288    0.5504 H         1 <0>         0.4258
     39 H11        -0.0411  -12.4961   -1.2105 H         1 <0>         0.4147
     40 H12        -1.8334  -13.8032   -2.4777 H         1 <0>         0.1272
     41 H13        -2.7558  -14.1985   -4.7249 H         1 <0>         0.1292
     42 H14        -2.3028  -12.6016   -6.5420 H         1 <0>         0.1261
     43 H15        -0.9284  -10.6046   -6.1173 H         1 <0>         0.1286
     44 H16        -0.0108  -10.1944   -3.8708 H         1 <0>         0.1410
     45 H17         0.3013   -6.8033    4.0142 H         1 <0>         0.0833
     46 H18         1.8820   -7.5823    3.7633 H         1 <0>         0.0756
     47 H19         1.6376   -5.8878    3.2762 H         1 <0>         0.0983
     48 H20         2.3896   -3.2160   -1.7745 H         1 <0>         0.0724
     49 H21         0.8400   -3.9249   -2.2888 H         1 <0>         0.0620
     50 H22         1.4098   -2.4053   -3.0199 H         1 <0>         0.0707
@<TRIPOS>BOND
     1    1    2 1
     2    1   29 1
     3    1   30 1
     4    1   31 1
     5    2    7 ar
     6    2    3 ar
     7    3    4 ar
     8    3   32 1
     9    4    5 ar
    10    4   28 1
    11    5    6 ar
    12    5    9 1
    13    6    7 ar
    14    6    8 1
    15    7   33 1
    16    8   34 1
    17    8   35 1
    18    8   36 1
    19    9   10 am
    20    9   37 1
    21   10   11 2
    22   10   12 1
    23   12   16 1
    24   12   13 2
    25   13   14 1
    26   13   27 1
    27   14   15 2
    28   15   16 1
    29   15   17 1
    30   17   18 am
    31   17   38 1
    32   18   19 2
    33   18   20 am
    34   20   21 1
    35   20   39 1
    36   21   26 ar
    37   21   22 ar
    38   22   23 ar
    39   22   40 1
    40   23   24 ar
    41   23   41 1
    42   24   25 ar
    43   24   42 1
    44   25   26 ar
    45   25   43 1
    46   26   44 1
    47   27   45 1
    48   27   46 1
    49   27   47 1
    50   28   48 1
    51   28   49 1
    52   28   50 1
@<TRIPOS>MOLECULE
CHEMBL110783
   56    60     0     0     0
SMALL
USER_CHARGES

@<TRIPOS>ATOM
      1 C1          2.6858   -0.2559    1.3939 C.3       1 <0>        -0.1134
      2 C2          1.5045   -0.8927    0.7084 C.ar      1 <0>        -0.0699
      3 C3          1.6880   -1.6217   -0.4507 C.ar      1 <0>        -0.1088
      4 C4          0.6052   -2.2069   -1.0804 C.ar      1 <0>        -0.0963
      5 C5         -0.6655   -2.0649   -0.5529 C.ar      1 <0>        -0.1122
      6 C6         -0.8565   -1.3372    0.6060 C.ar      1 <0>        -0.0100
      7 C7          0.2313   -0.7520    1.2443 C.ar      1 <0>         0.1481
      8 N1          0.0429   -0.0192    2.4201 N.pl3     1 <0>        -0.6427
      9 C8         -0.3463   -0.6627    3.5813 C.2       1 <0>         0.4966
     10 C9         -0.4330    0.0806    4.8364 C.2       1 <0>        -0.0736
     11 C10        -0.2048    1.3854    5.1973 C.2       1 <0>         0.0478
     12 N2         -0.4514    1.4890    6.5056 N.2       1 <0>        -0.4626
     13 C11        -0.8199    0.3254    6.9812 C.2       1 <0>         0.2001
     14 N3         -0.8242   -0.5793    5.9868 N.pl3     1 <0>        -0.3704
     15 C12        -1.1236   -1.9346    5.9130 C.ar      1 <0>         0.0988
     16 C13        -1.5196   -2.6262    7.0483 C.ar      1 <0>        -0.1779
     17 C14        -1.8172   -3.9777    6.9680 C.ar      1 <0>         0.1907
     18 C15        -1.7200   -4.6451    5.7496 C.ar      1 <0>        -0.1680
     19 C16        -1.3284   -3.9703    4.6166 C.ar      1 <0>        -0.0399
     20 C17        -1.0246   -2.6046    4.6830 C.ar      1 <0>         0.1199
     21 N4         -0.6441   -1.9432    3.5568 N.2       1 <0>        -0.5387
     22 N5         -2.2157   -4.6728    8.1134 N.pl3     1 <0>        -0.6344
     23 C18        -2.4473   -3.9165    9.3606 C.3       1 <0>         0.1087
     24 C19        -3.7029   -4.4254   10.0917 C.3       1 <0>        -0.1590
     25 C20        -4.7851   -4.7312    9.0800 C.3       1 <0>        -0.0060
     26 N6         -4.7183   -6.1443    8.7146 N.4       1 <0>        -0.3651
     27 C21        -3.8460   -6.4420    7.6441 C.3       1 <0>        -0.0552
     28 C22        -2.3923   -6.1081    8.0330 C.3       1 <0>         0.1085
     29 C23        -6.0689   -6.5932    8.3505 C.3       1 <0>        -0.0550
     30 Cl1        -2.4516   -1.1592    1.2677 Cl        1 <0>        -0.0590
     31 H1          3.1096   -0.9566    2.1133 H         1 <0>         0.0741
     32 H2          3.4405    0.0033    0.6513 H         1 <0>         0.0756
     33 H3          2.3619    0.6463    1.9128 H         1 <0>         0.0665
     34 H4          2.6787   -1.7344   -0.8656 H         1 <0>         0.1350
     35 H5          0.7518   -2.7759   -1.9865 H         1 <0>         0.1365
     36 H6         -1.5093   -2.5230   -1.0475 H         1 <0>         0.1364
     37 H7          0.1850    0.9403    2.4216 H         1 <0>         0.4239
     38 H8          0.1157    2.1825    4.5427 H         1 <0>         0.1879
     39 H9         -1.0798    0.1246    8.0100 H         1 <0>         0.2139
     40 H10        -1.5958   -2.1118    7.9949 H         1 <0>         0.1329
     41 H11        -1.9529   -5.6982    5.6939 H         1 <0>         0.1321
     42 H12        -1.2547   -4.4941    3.6751 H         1 <0>         0.1453
     43 H13        -1.5822   -4.0304   10.0139 H         1 <0>         0.0813
     44 H14        -2.5764   -2.8612    9.1203 H         1 <0>         0.0955
     45 H15        -3.4582   -5.3308   10.6470 H         1 <0>         0.0893
     46 H16        -4.0567   -3.6598   10.7822 H         1 <0>         0.1235
     47 H17        -5.7610   -4.5132    9.5139 H         1 <0>         0.1348
     48 H18        -4.6362   -4.1180    8.1912 H         1 <0>         0.1314
     49 H19        -3.9216   -7.5018    7.4008 H         1 <0>         0.1428
     50 H20        -4.1301   -5.8527    6.7723 H         1 <0>         0.1312
     51 H21        -1.7178   -6.5146    7.2795 H         1 <0>         0.1208
     52 H22        -2.1651   -6.5559    9.0005 H         1 <0>         0.0969
     53 H23        -6.4315   -6.0065    7.5065 H         1 <0>         0.1220
     54 H24        -6.0393   -7.6472    8.0743 H         1 <0>         0.1253
     55 H25        -6.7379   -6.4590    9.2005 H         1 <0>         0.1253
     56 H26        -4.4201   -6.6685    9.5235 H         1 <0>         0.4184
@<TRIPOS>BOND
     1    1    2 1
     2    1   31 1
     3    1   32 1
     4    1   33 1
     5    2    7 ar
     6    2    3 ar
     7    3    4 ar
     8    3   34 1
     9    4    5 ar
    10    4   35 1
    11    5    6 ar
    12    5   36 1
    13    6    7 ar
    14    6   30 1
    15    7    8 1
    16    8    9 1
    17    8   37 1
    18    9   21 2
    19    9   10 1
    20   10   14 1
    21   10   11 2
    22   11   12 1
    23   11   38 1
    24   12   13 2
    25   13   14 1
    26   13   39 1
    27   14   15 1
    28   15   20 ar
    29   15   16 ar
    30   16   17 ar
    31   16   40 1
    32   17   18 ar
    33   17   22 1
    34   18   19 ar
    35   18   41 1
    36   19   20 ar
    37   19   42 1
    38   20   21 1
    39   22   28 1
    40   22   23 1
    41   23   24 1
    42   23   43 1
    43   23   44 1
    44   24   25 1
    45   24   45 1
    46   24   46 1
    47   25   26 1
    48   25   47 1
    49   25   48 1
    50   26   27 1
    51   26   29 1
    52   26   56 1
    53   27   28 1
    54   27   49 1
    55   27   50 1
    56   28   51 1
    57   28   52 1
    58   29   53 1
    59   29   54 1
    60   29   55 1
@<TRIPOS>MOLECULE
CHEMBL110783__1
   55    59     0     0     0
SMALL
USER_CHARGES

@<TRIPOS>ATOM
      1 C1          2.6860   -0.2565    1.3940 C.3       1 <0>        -0.1111
      2 C2          1.5044   -0.8930    0.7084 C.ar      1 <0>        -0.0740
      3 C3          1.6878   -1.6220   -0.4507 C.ar      1 <0>        -0.1109
      4 C4          0.6049   -2.2068   -1.0805 C.ar      1 <0>        -0.1011
      5 C5         -0.6658   -2.0646   -0.5530 C.ar      1 <0>        -0.1124
      6 C6         -0.8567   -1.3368    0.6059 C.ar      1 <0>        -0.0118
      7 C7          0.2313   -0.7520    1.2443 C.ar      1 <0>         0.1576
      8 N1          0.0431   -0.0193    2.4201 N.pl3     1 <0>        -0.6510
      9 C8         -0.3461   -0.6627    3.5813 C.2       1 <0>         0.4747
     10 C9         -0.4326    0.0805    4.8365 C.2       1 <0>        -0.0660
     11 C10        -0.2042    1.3853    5.1974 C.2       1 <0>         0.0329
     12 N2         -0.4507    1.4889    6.5058 N.2       1 <0>        -0.4675
     13 C11        -0.8194    0.3253    6.9813 C.2       1 <0>         0.1950
     14 N3         -0.8239   -0.5794    5.9869 N.pl3     1 <0>        -0.3644
     15 C12        -1.1234   -1.9346    5.9131 C.ar      1 <0>         0.1064
     16 C13        -1.5194   -2.6262    7.0483 C.ar      1 <0>        -0.1989
     17 C14        -1.8172   -3.9777    6.9680 C.ar      1 <0>         0.2250
     18 C15        -1.7202   -4.6451    5.7495 C.ar      1 <0>        -0.1722
     19 C16        -1.3285   -3.9702    4.6166 C.ar      1 <0>        -0.0354
     20 C17        -1.0246   -2.6046    4.6830 C.ar      1 <0>         0.0908
     21 N4         -0.6441   -1.9432    3.5568 N.2       1 <0>        -0.5242
     22 N5         -2.2157   -4.6728    8.1134 N.pl3     1 <0>        -0.6162
     23 C18        -2.3894   -6.1363    8.0312 C.3       1 <0>         0.1195
     24 C19        -1.8203   -6.8373    9.2763 C.3       1 <0>        -0.1333
     25 C20        -0.5224   -6.1754    9.6834 C.3       1 <0>         0.0733
     26 N6         -0.8059   -5.1314   10.6668 N.3       1 <0>        -0.5665
     27 C21        -1.1284   -3.8544   10.1514 C.3       1 <0>         0.0528
     28 C22        -2.4367   -3.9300    9.3376 C.3       1 <0>         0.1241
     29 C23         0.2698   -5.0407   11.6631 C.3       1 <0>         0.0323
     30 Cl1        -2.4517   -1.1585    1.2676 Cl        1 <0>        -0.0551
     31 H1          3.1095   -0.9574    2.1134 H         1 <0>         0.0732
     32 H2          3.4407    0.0024    0.6515 H         1 <0>         0.0722
     33 H3          2.3623    0.6457    1.9130 H         1 <0>         0.0666
     34 H4          2.6785   -1.7349   -0.8656 H         1 <0>         0.1320
     35 H5          0.7514   -2.7758   -1.9867 H         1 <0>         0.1337
     36 H6         -1.5097   -2.5224   -1.0477 H         1 <0>         0.1349
     37 H7          0.1853    0.9402    2.4217 H         1 <0>         0.4208
     38 H8          0.1163    2.1823    4.5429 H         1 <0>         0.1835
     39 H9         -1.0791    0.1245    8.0102 H         1 <0>         0.2121
     40 H10        -1.5954   -2.1119    7.9949 H         1 <0>         0.1302
     41 H11        -1.9532   -5.6982    5.6939 H         1 <0>         0.1360
     42 H12        -1.2550   -4.4941    3.6750 H         1 <0>         0.1407
     43 H13        -3.4517   -6.3655    7.9469 H         1 <0>         0.0628
     44 H14        -1.8738   -6.5078    7.1456 H         1 <0>         0.0801
     45 H15        -2.5374   -6.7635   10.0938 H         1 <0>         0.0810
     46 H16        -1.6365   -7.8875    9.0492 H         1 <0>         0.0805
     47 H17         0.1436   -6.9184   10.1222 H         1 <0>         0.0709
     48 H18        -0.0490   -5.7321    8.8074 H         1 <0>         0.0429
     49 H19        -1.2539   -3.1525   10.9759 H         1 <0>         0.0825
     50 H20        -0.3208   -3.5104    9.5053 H         1 <0>         0.0273
     51 H21        -2.7665   -2.9200    9.0945 H         1 <0>         0.0787
     52 H22        -3.2035   -4.4283    9.9307 H         1 <0>         0.0855
     53 H23         1.2091   -4.8042   11.1632 H         1 <0>         0.0240
     54 H24         0.0336   -4.2566   12.3825 H         1 <0>         0.0672
     55 H25         0.3649   -5.9940   12.1830 H         1 <0>         0.0683
@<TRIPOS>BOND
     1    1    2 1
     2    1   31 1
     3    1   32 1
     4    1   33 1
     5    2    7 ar
     6    2    3 ar
     7    3    4 ar
     8    3   34 1
     9    4    5 ar
    10    4   35 1
    11    5    6 ar
    12    5   36 1
    13    6    7 ar
    14    6   30 1
    15    7    8 1
    16    8    9 1
    17    8   37 1
    18    9   21 2
    19    9   10 1
    20   10   14 1
    21   10   11 2
    22   11   12 1
    23   11   38 1
    24   12   13 2
    25   13   14 1
    26   13   39 1
    27   14   15 1
    28   15   20 ar
    29   15   16 ar
    30   16   17 ar
    31   16   40 1
    32   17   18 ar
    33   17   22 1
    34   18   19 ar
    35   18   41 1
    36   19   20 ar
    37   19   42 1
    38   20   21 1
    39   22   28 1
    40   22   23 1
    41   23   24 1
    42   23   43 1
    43   23   44 1
    44   24   25 1
    45   24   45 1
    46   24   46 1
    47   25   26 1
    48   25   47 1
    49   25   48 1
    50   26   27 1
    51   26   29 1
    52   27   28 1
    53   27   49 1
    54   27   50 1
    55   28   51 1
    56   28   52 1
    57   29   53 1
    58   29   54 1
    59   29   55 1
@<TRIPOS>MOLECULE
CHEMBL214530
   73    77     0     0     0
SMALL
USER_CHARGES

@<TRIPOS>ATOM
      1 C1          0.0307    1.5035    0.0088 C.3       1 <0>        -0.1270
      2 C2          0.0391   -0.0035    0.0008 C.ar      1 <0>        -0.0380
      3 C3          0.0395   -0.6862   -1.2002 C.ar      1 <0>        -0.1228
      4 C4          0.0472   -2.0662   -1.2163 C.ar      1 <0>        -0.0788
      5 C5          0.0541   -2.7807   -0.0161 C.ar      1 <0>        -0.1439
      6 C6          0.0537   -2.0964    1.1980 C.ar      1 <0>        -0.0378
      7 C7          0.0522   -0.7052    1.2058 C.ar      1 <0>        -0.0516
      8 C8          0.0583    0.0307    2.4941 C.ar      1 <0>        -0.0768
      9 C9          0.9846    1.0651    2.7005 C.ar      1 <0>        -0.0509
     10 C10         1.0120    1.7560    3.8710 C.ar      1 <0>        -0.1204
     11 C11         0.1046    1.4370    4.8935 C.ar      1 <0>         0.2186
     12 C12        -0.8360    0.3928    4.6947 C.ar      1 <0>        -0.2150
     13 C13        -0.8526   -0.3044    3.4800 C.ar      1 <0>        -0.0356
     14 C14        -1.7347    0.0941    5.7365 C.ar      1 <0>         0.2445
     15 N1         -1.6631    0.7960    6.8481 N.ar      1 <0>        -0.5589
     16 C15        -0.7674    1.7695    7.0006 C.ar      1 <0>         0.5721
     17 N2          0.0987    2.0934    6.0602 N.ar      1 <0>        -0.5738
     18 N3         -0.7445    2.4692    8.1934 N.pl3     1 <0>        -0.6953
     19 C16        -1.6935    2.1336    9.2578 C.3       1 <0>         0.1380
     20 C17        -1.4568    3.0503   10.4598 C.3       1 <0>        -0.1303
     21 C18        -2.4479    2.6998   11.5714 C.3       1 <0>         0.0600
     22 N4         -2.2207    3.5799   12.7254 N.3       1 <0>        -0.5375
     23 C19        -0.9105    3.3172   13.3384 C.3       1 <0>         0.0132
     24 C20        -0.6900    4.2938   14.4967 C.3       1 <0>         0.0625
     25 O1         -1.7622    4.1636   15.4341 O.3       1 <0>        -0.3853
     26 C21        -3.0528    4.4133   14.8709 C.3       1 <0>         0.0627
     27 C22        -3.2973    3.4379   13.7164 C.3       1 <0>         0.0171
     28 C23         0.0613   -4.2589   -0.0337 C.2       1 <0>         0.5636
     29 O2          0.0673   -4.8792    1.0117 O.2       1 <0>        -0.5105
     30 N5          0.0613   -4.9189   -1.2088 N.am      1 <0>        -0.6648
     31 C24         0.1847   -6.3117   -1.2285 C.ar      1 <0>         0.1480
     32 C25         0.8044   -6.9706   -0.1742 C.ar      1 <0>        -0.0949
     33 C26         0.9243   -8.3461   -0.1966 C.ar      1 <0>        -0.1031
     34 C27         0.4282   -9.0677   -1.2671 C.ar      1 <0>        -0.0855
     35 C28        -0.1891   -8.4150   -2.3181 C.ar      1 <0>        -0.1662
     36 C29        -0.3170   -7.0397   -2.2994 C.ar      1 <0>        -0.0650
     37 C30        -0.9951   -6.3296   -3.4427 C.3       1 <0>        -0.1390
     38 C31        -0.7282   -9.2053   -3.4825 C.3       1 <0>         0.5116
     39 F1         -0.4873  -10.5674   -3.2730 F         1 <0>        -0.1747
     40 F2         -2.1055   -8.9875   -3.5962 F         1 <0>        -0.1744
     41 F3         -0.0924   -8.7948   -4.6590 F         1 <0>        -0.1748
     42 H1          1.0563    1.8726    0.0029 H         1 <0>         0.0796
     43 H2         -0.4919    1.8686   -0.8754 H         1 <0>         0.0728
     44 H3         -0.4783    1.8593    0.9045 H         1 <0>         0.0758
     45 H4          0.0335   -0.1376   -2.1305 H         1 <0>         0.1349
     46 H5          0.0475   -2.5945   -2.1583 H         1 <0>         0.1262
     47 H6          0.0591   -2.6439    2.1290 H         1 <0>         0.1407
     48 H7          1.6859    1.3155    1.9182 H         1 <0>         0.1342
     49 H8          1.7312    2.5489    4.0142 H         1 <0>         0.1397
     50 H9         -1.5668   -1.0978    3.3160 H         1 <0>         0.1363
     51 H10        -2.4664   -0.6926    5.6263 H         1 <0>         0.1784
     52 H11        -0.1001    3.1822    8.3252 H         1 <0>         0.4154
     53 H12        -2.7117    2.2687    8.8928 H         1 <0>         0.0698
     54 H13        -1.5501    1.0958    9.5586 H         1 <0>         0.0676
     55 H14        -0.4387    2.9152   10.8248 H         1 <0>         0.0706
     56 H15        -1.6003    4.0881   10.1590 H         1 <0>         0.0805
     57 H16        -3.4661    2.8349   11.2064 H         1 <0>         0.0814
     58 H17        -2.3045    1.6620   11.8722 H         1 <0>         0.0404
     59 H18        -0.8830    2.2945   13.7144 H         1 <0>         0.0443
     60 H19        -0.1264    3.4530   12.5935 H         1 <0>         0.0886
     61 H20         0.2547    4.0657   14.9902 H         1 <0>         0.0988
     62 H21        -0.6639    5.3137   14.1129 H         1 <0>         0.0605
     63 H22        -3.8171    4.2716   15.6351 H         1 <0>         0.0996
     64 H23        -3.0955    5.4366   14.4980 H         1 <0>         0.0607
     65 H24        -4.2555    3.6617   13.2475 H         1 <0>         0.0880
     66 H25        -3.3080    2.4171   14.0985 H         1 <0>         0.0446
     67 H26        -0.0244   -4.4277   -2.0409 H         1 <0>         0.4129
     68 H27         1.1923   -6.4077    0.6618 H         1 <0>         0.1555
     69 H28         1.4063   -8.8589    0.6226 H         1 <0>         0.1402
     70 H29         0.5235  -10.1434   -1.2823 H         1 <0>         0.1407
     71 H30        -0.2551   -6.0719   -4.2004 H         1 <0>         0.0847
     72 H31        -1.7501   -6.9831   -3.8797 H         1 <0>         0.0837
     73 H32        -1.4704   -5.4203   -3.0749 H         1 <0>         0.0737
@<TRIPOS>BOND
     1    1    2 1
     2    1   42 1
     3    1   43 1
     4    1   44 1
     5    2    7 ar
     6    2    3 ar
     7    3    4 ar
     8    3   45 1
     9    4    5 ar
    10    4   46 1
    11    5    6 ar
    12    5   28 1
    13    6    7 ar
    14    6   47 1
    15    7    8 1
    16    8   13 ar
    17    8    9 ar
    18    9   10 ar
    19    9   48 1
    20   10   11 ar
    21   10   49 1
    22   11   17 ar
    23   11   12 ar
    24   12   13 ar
    25   12   14 ar
    26   13   50 1
    27   14   15 ar
    28   14   51 1
    29   15   16 ar
    30   16   17 ar
    31   16   18 1
    32   18   19 1
    33   18   52 1
    34   19   20 1
    35   19   53 1
    36   19   54 1
    37   20   21 1
    38   20   55 1
    39   20   56 1
    40   21   22 1
    41   21   57 1
    42   21   58 1
    43   22   27 1
    44   22   23 1
    45   23   24 1
    46   23   59 1
    47   23   60 1
    48   24   25 1
    49   24   61 1
    50   24   62 1
    51   25   26 1
    52   26   27 1
    53   26   63 1
    54   26   64 1
    55   27   65 1
    56   27   66 1
    57   28   29 2
    58   28   30 am
    59   30   31 1
    60   30   67 1
    61   31   36 ar
    62   31   32 ar
    63   32   33 ar
    64   32   68 1
    65   33   34 ar
    66   33   69 1
    67   34   35 ar
    68   34   70 1
    69   35   36 ar
    70   35   38 1
    71   36   37 1
    72   37   71 1
    73   37   72 1
    74   37   73 1
    75   38   39 1
    76   38   40 1
    77   38   41 1
@<TRIPOS>MOLECULE
CHEMBL214530__1
   74    78     0     0     0
SMALL
USER_CHARGES

@<TRIPOS>ATOM
      1 C1          0.0307    1.5035    0.0088 C.3       1 <0>        -0.1274
      2 C2          0.0391   -0.0035    0.0008 C.ar      1 <0>        -0.0368
      3 C3          0.0395   -0.6862   -1.2002 C.ar      1 <0>        -0.1217
      4 C4          0.0472   -2.0662   -1.2163 C.ar      1 <0>        -0.0748
      5 C5          0.0541   -2.7807   -0.0161 C.ar      1 <0>        -0.1423
      6 C6          0.0537   -2.0964    1.1980 C.ar      1 <0>        -0.0365
      7 C7          0.0522   -0.7052    1.2058 C.ar      1 <0>        -0.0607
      8 C8          0.0583    0.0307    2.4941 C.ar      1 <0>        -0.0611
      9 C9          0.9846    1.0651    2.7005 C.ar      1 <0>        -0.0476
     10 C10         1.0120    1.7560    3.8710 C.ar      1 <0>        -0.1189
     11 C11         0.1046    1.4370    4.8935 C.ar      1 <0>         0.2130
     12 C12        -0.8360    0.3928    4.6947 C.ar      1 <0>        -0.2048
     13 C13        -0.8526   -0.3044    3.4800 C.ar      1 <0>        -0.0426
     14 C14        -1.7347    0.0941    5.7365 C.ar      1 <0>         0.2465
     15 N1         -1.6631    0.7960    6.8481 N.ar      1 <0>        -0.5649
     16 C15        -0.7674    1.7695    7.0006 C.ar      1 <0>         0.5643
     17 N2          0.0987    2.0934    6.0602 N.ar      1 <0>        -0.5651
     18 N3         -0.7445    2.4692    8.1934 N.pl3     1 <0>        -0.7062
     19 C16        -1.6935    2.1336    9.2578 C.3       1 <0>         0.1451
     20 C17        -1.4568    3.0503   10.4598 C.3       1 <0>        -0.1652
     21 C18        -2.4479    2.6998   11.5714 C.3       1 <0>        -0.0037
     22 N4         -2.2207    3.5799   12.7254 N.4       1 <0>        -0.3851
     23 C19        -0.8917    3.3116   13.2920 C.3       1 <0>        -0.0492
     24 C20        -0.6573    4.2299   14.4940 C.3       1 <0>         0.0361
     25 O1         -1.6921    4.0178   15.4584 O.3       1 <0>        -0.3562
     26 C21        -3.0085    4.2437   14.9466 C.3       1 <0>         0.0355
     27 C22        -3.2473    3.3254   13.7454 C.3       1 <0>        -0.0434
     28 C23         0.0613   -4.2589   -0.0337 C.2       1 <0>         0.5633
     29 O2          0.0673   -4.8792    1.0117 O.2       1 <0>        -0.5117
     30 N5          0.0613   -4.9189   -1.2088 N.am      1 <0>        -0.6635
     31 C24         0.1847   -6.3117   -1.2285 C.ar      1 <0>         0.1455
     32 C25         0.8044   -6.9706   -0.1742 C.ar      1 <0>        -0.0949
     33 C26         0.9243   -8.3461   -0.1966 C.ar      1 <0>        -0.1035
     34 C27         0.4282   -9.0677   -1.2671 C.ar      1 <0>        -0.0838
     35 C28        -0.1891   -8.4150   -2.3181 C.ar      1 <0>        -0.1654
     36 C29        -0.3170   -7.0397   -2.2994 C.ar      1 <0>        -0.0635
     37 C30        -0.9951   -6.3296   -3.4427 C.3       1 <0>        -0.1396
     38 C31        -0.7282   -9.2053   -3.4825 C.3       1 <0>         0.5112
     39 F1         -0.4873  -10.5674   -3.2730 F         1 <0>        -0.1740
     40 F2         -2.1055   -8.9875   -3.5962 F         1 <0>        -0.1742
     41 F3         -0.0924   -8.7948   -4.6590 F         1 <0>        -0.1742
     42 H1          1.0563    1.8726    0.0029 H         1 <0>         0.0803
     43 H2         -0.4919    1.8686   -0.8754 H         1 <0>         0.0749
     44 H3         -0.4783    1.8593    0.9045 H         1 <0>         0.0736
     45 H4          0.0335   -0.1376   -2.1305 H         1 <0>         0.1368
     46 H5          0.0475   -2.5945   -2.1583 H         1 <0>         0.1284
     47 H6          0.0591   -2.6439    2.1290 H         1 <0>         0.1406
     48 H7          1.6859    1.3155    1.9182 H         1 <0>         0.1382
     49 H8          1.7312    2.5489    4.0142 H         1 <0>         0.1418
     50 H9         -1.5668   -1.0978    3.3160 H         1 <0>         0.1396
     51 H10        -2.4664   -0.6926    5.6263 H         1 <0>         0.1812
     52 H11        -0.1001    3.1822    8.3252 H         1 <0>         0.4155
     53 H12        -2.7117    2.2687    8.8928 H         1 <0>         0.0773
     54 H13        -1.5501    1.0958    9.5586 H         1 <0>         0.0771
     55 H14        -0.4387    2.9152   10.8248 H         1 <0>         0.0947
     56 H15        -1.6003    4.0881   10.1590 H         1 <0>         0.0955
     57 H16        -3.4661    2.8349   11.2064 H         1 <0>         0.1383
     58 H17        -2.3045    1.6620   11.8722 H         1 <0>         0.1361
     59 H18        -0.8365    2.2714   13.6129 H         1 <0>         0.1406
     60 H19        -0.1293    3.5002   12.5362 H         1 <0>         0.1429
     61 H20         0.3100    4.0030   14.9423 H         1 <0>         0.1423
     62 H21        -0.6725    5.2694   14.1664 H         1 <0>         0.0814
     63 H22        -3.7428    4.0267   15.7223 H         1 <0>         0.1429
     64 H23        -3.1042    5.2836   14.6344 H         1 <0>         0.0815
     65 H24        -4.2336    3.5242   13.3261 H         1 <0>         0.1440
     66 H25        -3.1912    2.2852   14.0661 H         1 <0>         0.1402
     67 H26        -0.0244   -4.4277   -2.0409 H         1 <0>         0.4131
     68 H27         1.1923   -6.4077    0.6618 H         1 <0>         0.1548
     69 H28         1.4063   -8.8589    0.6226 H         1 <0>         0.1404
     70 H29         0.5235  -10.1434   -1.2823 H         1 <0>         0.1416
     71 H30        -0.2551   -6.0719   -4.2004 H         1 <0>         0.0855
     72 H31        -1.7501   -6.9831   -3.8797 H         1 <0>         0.0845
     73 H32        -1.4704   -5.4203   -3.0749 H         1 <0>         0.0733
     74 H33        -2.2721    4.5431   12.4293 H         1 <0>         0.4234
@<TRIPOS>BOND
     1    1    2 1
     2    1   42 1
     3    1   43 1
     4    1   44 1
     5    2    7 ar
     6    2    3 ar
     7    3    4 ar
     8    3   45 1
     9    4    5 ar
    10    4   46 1
    11    5    6 ar
    12    5   28 1
    13    6    7 ar
    14    6   47 1
    15    7    8 1
    16    8   13 ar
    17    8    9 ar
    18    9   10 ar
    19    9   48 1
    20   10   11 ar
    21   10   49 1
    22   11   17 ar
    23   11   12 ar
    24   12   13 ar
    25   12   14 ar
    26   13   50 1
    27   14   15 ar
    28   14   51 1
    29   15   16 ar
    30   16   17 ar
    31   16   18 1
    32   18   19 1
    33   18   52 1
    34   19   20 1
    35   19   53 1
    36   19   54 1
    37   20   21 1
    38   20   55 1
    39   20   56 1
    40   21   22 1
    41   21   57 1
    42   21   58 1
    43   22   27 1
    44   22   23 1
    45   22   74 1
    46   23   24 1
    47   23   59 1
    48   23   60 1
    49   24   25 1
    50   24   61 1
    51   24   62 1
    52   25   26 1
    53   26   27 1
    54   26   63 1
    55   26   64 1
    56   27   65 1
    57   27   66 1
    58   28   29 2
    59   28   30 am
    60   30   31 1
    61   30   67 1
    62   31   36 ar
    63   31   32 ar
    64   32   33 ar
    65   32   68 1
    66   33   34 ar
    67   33   69 1
    68   34   35 ar
    69   34   70 1
    70   35   36 ar
    71   35   38 1
    72   36   37 1
    73   37   71 1
    74   37   72 1
    75   37   73 1
    76   38   39 1
    77   38   40 1
    78   38   41 1
@<TRIPOS>MOLECULE
CHEMBL47787
   81    86     0     0     0
SMALL
USER_CHARGES

@<TRIPOS>ATOM
      1 C1         -2.5876    1.4016   -0.1401 C.3       1 <0>        -0.0459
      2 N1         -2.4319   -0.0591   -0.1509 N.4       1 <0>        -0.3885
      3 C2         -3.7383   -0.6921    0.0735 C.3       1 <0>        -0.0021
      4 C3         -3.5798   -2.2138    0.0436 C.3       1 <0>         0.0200
      5 N2         -2.6309   -2.6253    1.0878 N.3       1 <0>        -0.5346
      6 C4         -1.3253   -1.9798    0.8905 C.3       1 <0>         0.0195
      7 C5         -1.5024   -0.4600    0.9134 C.3       1 <0>        -0.0022
      8 C6         -2.4945   -4.0874    1.1287 C.3       1 <0>         0.0859
      9 C7         -3.8561   -4.7185    1.4268 C.3       1 <0>        -0.1099
     10 C8         -3.7140   -6.2413    1.4693 C.3       1 <0>        -0.1276
     11 C9         -2.7205   -6.6303    2.5659 C.3       1 <0>         0.1740
     12 C10        -1.3590   -5.9992    2.2678 C.3       1 <0>        -0.1266
     13 C11        -1.5010   -4.4765    2.2253 C.3       1 <0>        -0.1114
     14 N3         -2.5845   -8.0884    2.6067 N.pl3     1 <0>        -0.3777
     15 C12        -2.8735   -8.8764    3.6807 C.ar      1 <0>         0.3787
     16 C13        -2.6057  -10.2041    3.2976 C.ar      1 <0>        -0.3259
     17 C14        -2.1351  -10.1487    1.9137 C.2       1 <0>         0.1780
     18 N4         -2.1436   -8.8888    1.5474 N.2       1 <0>        -0.2383
     19 C15        -1.7292  -11.3033    1.0776 C.ar      1 <0>        -0.0080
     20 C16        -2.5025  -12.4636    1.0670 C.ar      1 <0>        -0.1219
     21 C17        -2.1246  -13.5381    0.2888 C.ar      1 <0>        -0.0989
     22 C18        -0.9740  -13.4675   -0.4847 C.ar      1 <0>         0.1553
     23 C19        -0.1972  -12.3101   -0.4773 C.ar      1 <0>         0.1064
     24 C20        -0.5766  -11.2285    0.2964 C.ar      1 <0>        -0.1503
     25 O1          0.9300  -12.2425   -1.2349 O.3       1 <0>        -0.3150
     26 C21         1.6775  -11.0259   -1.1787 C.3       1 <0>         0.0278
     27 N5         -0.5931  -14.5607   -1.2733 N.am      1 <0>        -0.6377
     28 C22        -1.4997  -15.5014   -1.6042 C.2       1 <0>         0.6517
     29 O2         -2.6687  -15.3490   -1.3094 O.2       1 <0>        -0.5492
     30 O3         -1.1101  -16.6103   -2.2614 O.3       1 <0>        -0.3514
     31 C23        -2.1241  -17.5654   -2.5802 C.3       1 <0>         0.1282
     32 C24        -1.5055  -18.7304   -3.3090 C.ar      1 <0>        -0.1051
     33 C25        -1.4082  -18.7102   -4.6878 C.ar      1 <0>        -0.0929
     34 C26        -0.8408  -19.7788   -5.3564 C.ar      1 <0>        -0.1229
     35 C27        -0.3703  -20.8674   -4.6461 C.ar      1 <0>        -0.1045
     36 C28        -0.4668  -20.8872   -3.2673 C.ar      1 <0>        -0.1226
     37 C29        -1.0303  -19.8167   -2.5984 C.ar      1 <0>        -0.0924
     38 C30        -2.8232  -11.2293    4.2324 C.ar      1 <0>         0.5211
     39 N6         -3.2730  -10.8982    5.4390 N.ar      1 <0>        -0.6035
     40 C31        -3.5112   -9.6381    5.7562 C.ar      1 <0>         0.3914
     41 N7         -3.3221   -8.6457    4.9144 N.ar      1 <0>        -0.5796
     42 N8         -2.5765  -12.5489    3.9063 N.pl3     1 <0>        -0.8237
     43 H1         -1.6185    1.8715   -0.3079 H         1 <0>         0.1240
     44 H2         -3.2774    1.6993   -0.9298 H         1 <0>         0.1241
     45 H3         -2.9824    1.7178    0.8255 H         1 <0>         0.1233
     46 H4         -4.1281   -0.3864    1.0444 H         1 <0>         0.1380
     47 H5         -4.4308   -0.3835   -0.7096 H         1 <0>         0.1353
     48 H6         -4.5464   -2.6838    0.2249 H         1 <0>         0.1268
     49 H7         -3.2029   -2.5211   -0.9319 H         1 <0>         0.0605
     50 H8         -0.6472   -2.2791    1.6896 H         1 <0>         0.1272
     51 H9         -0.9112   -2.2833   -0.0711 H         1 <0>         0.0603
     52 H10        -0.5373    0.0207    0.7530 H         1 <0>         0.1352
     53 H11        -1.9037   -0.1555    1.8800 H         1 <0>         0.1380
     54 H12        -2.1311   -4.4455    0.1655 H         1 <0>         0.0567
     55 H13        -4.2195   -4.3604    2.3900 H         1 <0>         0.0823
     56 H14        -4.5638   -4.4413    0.6455 H         1 <0>         0.0718
     57 H15        -4.6840   -6.6909    1.6817 H         1 <0>         0.0768
     58 H16        -3.3506   -6.5993    0.5061 H         1 <0>         0.0785
     59 H17        -3.0839   -6.2723    3.5291 H         1 <0>         0.1124
     60 H18        -0.6512   -6.2764    3.0491 H         1 <0>         0.0763
     61 H19        -0.9956   -6.3573    1.3046 H         1 <0>         0.0780
     62 H20        -0.5310   -4.0268    2.0129 H         1 <0>         0.0719
     63 H21        -1.8644   -4.1184    3.1885 H         1 <0>         0.0825
     64 H22        -3.3976  -12.5212    1.6685 H         1 <0>         0.1393
     65 H23        -2.7246  -14.4361    0.2817 H         1 <0>         0.1735
     66 H24         0.0213  -10.3291    0.2993 H         1 <0>         0.1407
     67 H25         2.5498  -11.1051   -1.8275 H         1 <0>         0.1056
     68 H26         1.0508  -10.1987   -1.5118 H         1 <0>         0.0578
     69 H27         2.0022  -10.8460   -0.1538 H         1 <0>         0.0583
     70 H28         0.3233  -14.6406   -1.5813 H         1 <0>         0.4256
     71 H29        -2.5921  -17.9188   -1.6614 H         1 <0>         0.0823
     72 H30        -2.8769  -17.0980   -3.2149 H         1 <0>         0.0818
     73 H31        -1.7758  -17.8597   -5.2427 H         1 <0>         0.1247
     74 H32        -0.7654  -19.7633   -6.4336 H         1 <0>         0.1272
     75 H33         0.0724  -21.7026   -5.1685 H         1 <0>         0.1266
     76 H34        -0.0995  -21.7379   -2.7124 H         1 <0>         0.1276
     77 H35        -1.1023  -19.8306   -1.5209 H         1 <0>         0.1254
     78 H36        -3.8759   -9.4137    6.7477 H         1 <0>         0.2061
     79 H37        -2.1130  -12.7664    3.0824 H         1 <0>         0.4149
     80 H38        -2.8667  -13.2580    4.5012 H         1 <0>         0.4129
     81 H39        -2.0660   -0.3515   -1.0446 H         1 <0>         0.4221
@<TRIPOS>BOND
     1    1    2 1
     2    1   43 1
     3    1   44 1
     4    1   45 1
     5    2    7 1
     6    2    3 1
     7    2   81 1
     8    3    4 1
     9    3   46 1
    10    3   47 1
    11    4    5 1
    12    4   48 1
    13    4   49 1
    14    5    6 1
    15    5    8 1
    16    6    7 1
    17    6   50 1
    18    6   51 1
    19    7   52 1
    20    7   53 1
    21    8   13 1
    22    8    9 1
    23    8   54 1
    24    9   10 1
    25    9   55 1
    26    9   56 1
    27   10   11 1
    28   10   57 1
    29   10   58 1
    30   11   12 1
    31   11   14 1
    32   11   59 1
    33   12   13 1
    34   12   60 1
    35   12   61 1
    36   13   62 1
    37   13   63 1
    38   14   18 1
    39   14   15 1
    40   15   41 ar
    41   15   16 ar
    42   16   17 1
    43   16   38 ar
    44   17   18 2
    45   17   19 1
    46   19   24 ar
    47   19   20 ar
    48   20   21 ar
    49   20   64 1
    50   21   22 ar
    51   21   65 1
    52   22   23 ar
    53   22   27 1
    54   23   24 ar
    55   23   25 1
    56   24   66 1
    57   25   26 1
    58   26   67 1
    59   26   68 1
    60   26   69 1
    61   27   28 am
    62   27   70 1
    63   28   29 2
    64   28   30 1
    65   30   31 1
    66   31   32 1
    67   31   71 1
    68   31   72 1
    69   32   37 ar
    70   32   33 ar
    71   33   34 ar
    72   33   73 1
    73   34   35 ar
    74   34   74 1
    75   35   36 ar
    76   35   75 1
    77   36   37 ar
    78   36   76 1
    79   37   77 1
    80   38   39 ar
    81   38   42 1
    82   39   40 ar
    83   40   41 ar
    84   40   78 1
    85   42   79 1
    86   42   80 1
@<TRIPOS>MOLECULE
CHEMBL47787__1
   81    86     0     0     0
SMALL
USER_CHARGES

@<TRIPOS>ATOM
      1 C1         -2.5956    1.3230   -0.3161 C.3       1 <0>         0.0194
      2 N1         -2.4251   -0.1361   -0.3099 N.3       1 <0>        -0.5434
      3 C2         -3.7206   -0.8172   -0.1763 C.3       1 <0>         0.0253
      4 C3         -3.5059   -2.3312   -0.2339 C.3       1 <0>        -0.0067
      5 N2         -2.6043   -2.7397    0.8513 N.4       1 <0>        -0.3838
      6 C4         -1.3068   -2.0703    0.6904 C.3       1 <0>        -0.0066
      7 C5         -1.5033   -0.5541    0.7557 C.3       1 <0>         0.0254
      8 C6         -2.4128   -4.1955    0.8066 C.3       1 <0>         0.0237
      9 C7         -3.7639   -4.8931    0.9760 C.3       1 <0>        -0.1365
     10 C8         -3.5644   -6.4093    0.9294 C.3       1 <0>        -0.1261
     11 C9         -2.6253   -6.8351    2.0598 C.3       1 <0>         0.1716
     12 C10        -1.2742   -6.1375    1.8903 C.3       1 <0>        -0.1253
     13 C11        -1.4736   -4.6213    1.9369 C.3       1 <0>        -0.1364
     14 N3         -2.4343   -8.2869    2.0152 N.pl3     1 <0>        -0.3834
     15 C12        -2.7571   -9.1546    3.0157 C.ar      1 <0>         0.3803
     16 C13        -2.4139  -10.4434    2.5657 C.ar      1 <0>        -0.3260
     17 C14        -1.8620  -10.2791    1.2210 C.2       1 <0>         0.1878
     18 N4         -1.8980   -8.9986    0.9368 N.2       1 <0>        -0.2426
     19 C15        -1.3601  -11.3601    0.3399 C.ar      1 <0>        -0.0136
     20 C16        -2.0847  -12.5439    0.2053 C.ar      1 <0>        -0.1210
     21 C17        -1.6175  -13.5500   -0.6147 C.ar      1 <0>        -0.0992
     22 C18        -0.4254  -13.3870   -1.3072 C.ar      1 <0>         0.1585
     23 C19         0.3030  -12.2058   -1.1758 C.ar      1 <0>         0.1065
     24 C20        -0.1657  -11.1924   -0.3598 C.ar      1 <0>        -0.1493
     25 O1          1.4710  -12.0478   -1.8541 O.3       1 <0>        -0.3143
     26 C21         2.1647  -10.8118   -1.6721 C.3       1 <0>         0.0278
     27 N5          0.0462  -14.4109   -2.1386 N.am      1 <0>        -0.6381
     28 C22        -0.8004  -15.3591   -2.5865 C.2       1 <0>         0.6520
     29 O2         -1.9904  -15.2684   -2.3576 O.2       1 <0>        -0.5491
     30 O3         -0.3276  -16.4071   -3.2876 O.3       1 <0>        -0.3508
     31 C23        -1.2815  -17.3742   -3.7311 C.3       1 <0>         0.1284
     32 C24        -0.5737  -18.4653   -4.4926 C.ar      1 <0>        -0.1058
     33 C25        -0.3930  -18.3496   -5.8582 C.ar      1 <0>        -0.0927
     34 C26         0.2562  -19.3504   -6.5566 C.ar      1 <0>        -0.1228
     35 C27         0.7252  -20.4666   -5.8894 C.ar      1 <0>        -0.1041
     36 C28         0.5453  -20.5818   -4.5237 C.ar      1 <0>        -0.1226
     37 C29        -0.1002  -19.5790   -3.8246 C.ar      1 <0>        -0.0925
     38 C30        -2.6474  -11.5358    3.4167 C.ar      1 <0>         0.5225
     39 N6         -3.1831  -11.3022    4.6110 N.ar      1 <0>        -0.6014
     40 C31        -3.4900  -10.0753    4.9929 C.ar      1 <0>         0.3944
     41 N7         -3.2892   -9.0228    4.2305 N.ar      1 <0>        -0.5826
     42 N8         -2.3290  -12.8211    3.0227 N.pl3     1 <0>        -0.8216
     43 H1         -1.6301    1.8009   -0.4818 H         1 <0>         0.0843
     44 H2         -3.2825    1.6051   -1.1141 H         1 <0>         0.0839
     45 H3         -3.0008    1.6455    0.6430 H         1 <0>         0.0396
     46 H4         -4.1751   -0.5504    0.7779 H         1 <0>         0.0605
     47 H5         -4.3778   -0.5118   -0.9905 H         1 <0>         0.1239
     48 H6         -4.4639   -2.8386   -0.1208 H         1 <0>         0.1375
     49 H7         -3.0640   -2.5992   -1.1937 H         1 <0>         0.1381
     50 H8         -0.6345   -2.3843    1.4888 H         1 <0>         0.1372
     51 H9         -0.8762   -2.3396   -0.2741 H         1 <0>         0.1380
     52 H10        -0.5427   -0.0568    0.6214 H         1 <0>         0.1237
     53 H11        -1.9212   -0.2830    1.7252 H         1 <0>         0.0605
     54 H12        -1.9771   -4.4753   -0.1526 H         1 <0>         0.1416
     55 H13        -4.1995   -4.6132    1.9352 H         1 <0>         0.0916
     56 H14        -4.4329   -4.5897    0.1707 H         1 <0>         0.0965
     57 H15        -4.5270   -6.9063    1.0501 H         1 <0>         0.0906
     58 H16        -3.1288   -6.6892   -0.0297 H         1 <0>         0.0899
     59 H17        -3.0609   -6.5553    3.0189 H         1 <0>         0.1148
     60 H18        -0.6051   -6.4409    2.6956 H         1 <0>         0.0902
     61 H19        -0.8385   -6.4174    0.9312 H         1 <0>         0.0893
     62 H20        -0.5111   -4.1243    1.8162 H         1 <0>         0.0963
     63 H21        -1.9093   -4.3414    2.8961 H         1 <0>         0.0917
     64 H22        -3.0119  -12.6733    0.7436 H         1 <0>         0.1391
     65 H23        -2.1799  -14.4662   -0.7178 H         1 <0>         0.1741
     66 H24         0.3948  -10.2745   -0.2609 H         1 <0>         0.1408
     67 H25         1.5272   -9.9870   -1.9906 H         1 <0>         0.0578
     68 H26         2.4186  -10.6892   -0.6192 H         1 <0>         0.0581
     69 H27         3.0776  -10.8165   -2.2678 H         1 <0>         0.1064
     70 H28         0.9822  -14.4374   -2.3921 H         1 <0>         0.4262
     71 H29        -1.7905  -17.8045   -2.8687 H         1 <0>         0.0824
     72 H30        -2.0119  -16.8926   -4.3812 H         1 <0>         0.0820
     73 H31        -0.7593  -17.4776   -6.3795 H         1 <0>         0.1248
     74 H32         0.3968  -19.2604   -7.6237 H         1 <0>         0.1274
     75 H33         1.2318  -21.2488   -6.4352 H         1 <0>         0.1268
     76 H34         0.9113  -21.4540   -4.0025 H         1 <0>         0.1277
     77 H35        -0.2375  -19.6673   -2.7570 H         1 <0>         0.1252
     78 H36        -3.9234   -9.9307    5.9715 H         1 <0>         0.2071
     79 H37        -1.8076  -12.9665    2.2178 H         1 <0>         0.4158
     80 H38        -2.6267  -13.5781    3.5511 H         1 <0>         0.4141
     81 H39        -3.0081   -2.4811    1.7391 H         1 <0>         0.4186
@<TRIPOS>BOND
     1    1    2 1
     2    1   43 1
     3    1   44 1
     4    1   45 1
     5    2    7 1
     6    2    3 1
     7    3    4 1
     8    3   46 1
     9    3   47 1
    10    4    5 1
    11    4   48 1
    12    4   49 1
    13    5    6 1
    14    5    8 1
    15    5   81 1
    16    6    7 1
    17    6   50 1
    18    6   51 1
    19    7   52 1
    20    7   53 1
    21    8   13 1
    22    8    9 1
    23    8   54 1
    24    9   10 1
    25    9   55 1
    26    9   56 1
    27   10   11 1
    28   10   57 1
    29   10   58 1
    30   11   12 1
    31   11   14 1
    32   11   59 1
    33   12   13 1
    34   12   60 1
    35   12   61 1
    36   13   62 1
    37   13   63 1
    38   14   18 1
    39   14   15 1
    40   15   41 ar
    41   15   16 ar
    42   16   17 1
    43   16   38 ar
    44   17   18 2
    45   17   19 1
    46   19   24 ar
    47   19   20 ar
    48   20   21 ar
    49   20   64 1
    50   21   22 ar
    51   21   65 1
    52   22   23 ar
    53   22   27 1
    54   23   24 ar
    55   23   25 1
    56   24   66 1
    57   25   26 1
    58   26   67 1
    59   26   68 1
    60   26   69 1
    61   27   28 am
    62   27   70 1
    63   28   29 2
    64   28   30 1
    65   30   31 1
    66   31   32 1
    67   31   71 1
    68   31   72 1
    69   32   37 ar
    70   32   33 ar
    71   33   34 ar
    72   33   73 1
    73   34   35 ar
    74   34   74 1
    75   35   36 ar
    76   35   75 1
    77   36   37 ar
    78   36   76 1
    79   37   77 1
    80   38   39 ar
    81   38   42 1
    82   39   40 ar
    83   40   41 ar
    84   40   78 1
    85   42   79 1
    86   42   80 1
@<TRIPOS>MOLECULE
CHEMBL120077
   40    43     0     0     0
SMALL
USER_CHARGES

@<TRIPOS>ATOM
      1 C1         -0.4972    1.2152   -0.2273 C.3       1 <0>         0.0236
      2 O1          0.2492    0.0508    0.1321 O.3       1 <0>        -0.3016
      3 C2          1.0792   -0.4664   -0.8127 C.ar      1 <0>         0.1188
      4 C3          1.1765    0.1382   -2.0569 C.ar      1 <0>        -0.1587
      5 C4          2.0179   -0.3853   -3.0165 C.ar      1 <0>        -0.0646
      6 C5          2.7744   -1.5219   -2.7446 C.ar      1 <0>        -0.0211
      7 C6          2.6764   -2.1301   -1.4915 C.ar      1 <0>        -0.1369
      8 C7          1.8363   -1.6002   -0.5298 C.ar      1 <0>         0.0987
      9 O2          1.7453   -2.1901    0.6922 O.3       1 <0>        -0.3036
     10 C8          2.5502   -3.3498    0.9142 C.3       1 <0>         0.0239
     11 C9          3.5874   -1.8732   -3.9364 C.2       1 <0>         0.1308
     12 C10         3.3328   -0.9438   -4.9607 C.2       1 <0>        -0.3055
     13 C11         4.0858   -1.2858   -6.0373 C.2       1 <0>         0.3755
     14 N1          4.7955   -2.3970   -5.7063 N.pl3     1 <0>        -0.4880
     15 H1          5.4199   -2.8666   -6.2811 H         1 <0>         0.4434
     16 N2          4.4675   -2.7446   -4.3901 N.2       1 <0>        -0.2659
     17 N3          4.1239   -0.6194   -7.2594 N.pl3     1 <0>        -0.6554
     18 C12         4.8518   -1.1551   -8.3248 C.ar      1 <0>         0.1980
     19 C13         4.9430   -2.5328   -8.4827 C.ar      1 <0>        -0.1958
     20 C14         5.6626   -3.0602   -9.5366 C.ar      1 <0>        -0.0481
     21 C15         6.2933   -2.2197  -10.4353 C.ar      1 <0>        -0.1801
     22 C16         6.2052   -0.8460  -10.2819 C.ar      1 <0>         0.1402
     23 C17         5.4809   -0.3118   -9.2312 C.ar      1 <0>        -0.1933
     24 F1          6.8226   -0.0273  -11.1616 F         1 <0>        -0.1319
     25 C18         2.3257    0.0459   -4.4300 C.3       1 <0>         0.0158
     26 H2          0.1893    2.0210   -0.4870 H         1 <0>         0.0572
     27 H3         -1.1328    0.9893   -1.0835 H         1 <0>         0.0572
     28 H4         -1.1174    1.5233    0.6144 H         1 <0>         0.1025
     29 H5          0.5923    1.0200   -2.2751 H         1 <0>         0.1425
     30 H6          3.2595   -3.0123   -1.2723 H         1 <0>         0.1407
     31 H7          2.2797   -4.1229    0.1950 H         1 <0>         0.0564
     32 H8          3.6019   -3.0912    0.7915 H         1 <0>         0.0565
     33 H9          2.3827   -3.7200    1.9257 H         1 <0>         0.1025
     34 H10         3.6450    0.2167   -7.3711 H         1 <0>         0.4302
     35 H11         4.4515   -3.1906   -7.7812 H         1 <0>         0.1322
     36 H12         5.7332   -4.1310   -9.6589 H         1 <0>         0.1413
     37 H13         6.8560   -2.6351  -11.2582 H         1 <0>         0.1408
     38 H14         5.4082    0.7593   -9.1138 H         1 <0>         0.1425
     39 H15         1.4198    0.0201   -5.0355 H         1 <0>         0.0899
     40 H16         2.7500    1.0499   -4.4317 H         1 <0>         0.0894
@<TRIPOS>BOND
     1    1    2 1
     2    1   26 1
     3    1   27 1
     4    1   28 1
     5    2    3 1
     6    3    8 ar
     7    3    4 ar
     8    4    5 ar
     9    4   29 1
    10    5   25 1
    11    5    6 ar
    12    6    7 ar
    13    6   11 1
    14    7    8 ar
    15    7   30 1
    16    8    9 1
    17    9   10 1
    18   10   31 1
    19   10   32 1
    20   10   33 1
    21   11   16 2
    22   11   12 1
    23   12   13 2
    24   12   25 1
    25   13   14 1
    26   13   17 1
    27   14   15 1
    28   14   16 1
    29   17   18 1
    30   17   34 1
    31   18   23 ar
    32   18   19 ar
    33   19   20 ar
    34   19   35 1
    35   20   21 ar
    36   20   36 1
    37   21   22 ar
    38   21   37 1
    39   22   23 ar
    40   22   24 1
    41   23   38 1
    42   25   39 1
    43   25   40 1
@<TRIPOS>MOLECULE
CHEMBL120077__1
   40    43     0     0     0
SMALL
USER_CHARGES

@<TRIPOS>ATOM
      1 C1         -0.1112    1.3896    1.3756 C.3       1 <0>         0.0228
      2 O1         -0.0856   -0.0369    1.2956 O.3       1 <0>        -0.3005
      3 C2         -1.2739   -0.6651    1.0909 C.ar      1 <0>         0.1216
      4 C3         -2.4391    0.0778    0.9640 C.ar      1 <0>        -0.1563
      5 C4         -3.6428   -0.5583    0.7568 C.ar      1 <0>        -0.0615
      6 C5         -3.7032   -1.9493    0.6726 C.ar      1 <0>        -0.0431
      7 C6         -2.5289   -2.6962    0.8010 C.ar      1 <0>        -0.1455
      8 C7         -1.3215   -2.0542    1.0029 C.ar      1 <0>         0.1015
      9 O2         -0.1783   -2.7811    1.1218 O.3       1 <0>        -0.3024
     10 C8         -0.2991   -4.2014    1.0215 C.3       1 <0>         0.0240
     11 C9         -5.1053   -2.3643    0.4489 C.2       1 <0>         0.1380
     12 C10        -5.9142   -1.2683    0.3923 C.2       1 <0>        -0.2711
     13 C11        -7.2266   -1.7073    0.1805 C.2       1 <0>         0.3585
     14 N1         -7.2174   -3.0184    0.1109 N.2       1 <0>        -0.3069
     15 H1         -5.6032   -4.3858    0.2676 H         1 <0>         0.4417
     16 N2         -5.8996   -3.4623    0.2753 N.pl3     1 <0>        -0.4576
     17 N3         -8.3560   -0.8881    0.0634 N.pl3     1 <0>        -0.6462
     18 C12        -9.6268   -1.4602   -0.0330 C.ar      1 <0>         0.2056
     19 C13        -9.8845   -2.6884    0.5641 C.ar      1 <0>        -0.1547
     20 C14       -11.1414   -3.2520    0.4681 C.ar      1 <0>        -0.0604
     21 C15       -12.1445   -2.5964   -0.2218 C.ar      1 <0>        -0.1840
     22 C16       -11.8924   -1.3722   -0.8185 C.ar      1 <0>         0.1277
     23 C17       -10.6366   -0.8001   -0.7207 C.ar      1 <0>        -0.2001
     24 F1        -12.8745   -0.7341   -1.4918 F         1 <0>        -0.1376
     25 C18        -5.0512   -0.0445    0.5825 C.3       1 <0>         0.0008
     26 H2          0.8997    1.7625    1.5402 H         1 <0>         0.1039
     27 H3         -0.5022    1.7988    0.4440 H         1 <0>         0.0582
     28 H4         -0.7508    1.6957    2.2035 H         1 <0>         0.0583
     29 H5         -2.4019    1.1552    1.0282 H         1 <0>         0.1447
     30 H6         -2.5641   -3.7738    0.7378 H         1 <0>         0.1373
     31 H7          0.6840   -4.6586    1.1336 H         1 <0>         0.1040
     32 H8         -0.9611   -4.5661    1.8070 H         1 <0>         0.0557
     33 H9         -0.7125   -4.4631    0.0475 H         1 <0>         0.0557
     34 H10        -8.2561    0.0766    0.0492 H         1 <0>         0.4239
     35 H11        -9.1018   -3.2020    1.1027 H         1 <0>         0.1420
     36 H12       -11.3412   -4.2065    0.9322 H         1 <0>         0.1348
     37 H13       -13.1265   -3.0400   -0.2958 H         1 <0>         0.1349
     38 H14       -10.4406    0.1564   -1.1823 H         1 <0>         0.1369
     39 H15        -5.3648    0.5024    1.4717 H         1 <0>         0.0980
     40 H16        -5.1112    0.5983   -0.2958 H         1 <0>         0.0975
@<TRIPOS>BOND
     1    1    2 1
     2    1   26 1
     3    1   27 1
     4    1   28 1
     5    2    3 1
     6    3    8 ar
     7    3    4 ar
     8    4    5 ar
     9    4   29 1
    10    5   25 1
    11    5    6 ar
    12    6    7 ar
    13    6   11 1
    14    7    8 ar
    15    7   30 1
    16    8    9 1
    17    9   10 1
    18   10   31 1
    19   10   32 1
    20   10   33 1
    21   11   12 2
    22   11   16 1
    23   12   25 1
    24   12   13 1
    25   13   17 1
    26   13   14 2
    27   14   16 1
    28   15   16 1
    29   17   18 1
    30   17   34 1
    31   18   23 ar
    32   18   19 ar
    33   19   20 ar
    34   19   35 1
    35   20   21 ar
    36   20   36 1
    37   21   22 ar
    38   21   37 1
    39   22   23 ar
    40   22   24 1
    41   23   38 1
    42   25   39 1
    43   25   40 1
@<TRIPOS>MOLECULE
CHEMBL68104
   47    50     0     0     0
SMALL
USER_CHARGES

@<TRIPOS>ATOM
      1 C1         -0.8918    1.1169    0.2421 C.3       1 <0>        -0.1170
      2 C2         -0.1931   -0.2154    0.1524 C.ar      1 <0>        -0.0848
      3 C3         -0.1582   -0.8983   -1.0480 C.ar      1 <0>        -0.1057
      4 C4          0.4828   -2.1204   -1.1319 C.ar      1 <0>        -0.1070
      5 C5          1.0913   -2.6639   -0.0151 C.ar      1 <0>        -0.1069
      6 C6          1.0602   -1.9862    1.1887 C.ar      1 <0>        -0.0242
      7 C7          0.4209   -0.7548    1.2746 C.ar      1 <0>         0.1446
      8 N1          0.3919   -0.0631    2.4903 N.am      1 <0>        -0.6716
      9 C8         -0.0355   -0.6830    3.6082 C.2       1 <0>         0.5607
     10 O1         -0.2979   -1.8702    3.5827 O.2       1 <0>        -0.4956
     11 C9         -0.1850    0.0784    4.8622 C.ar      1 <0>        -0.1242
     12 C10         0.1091    1.4488    4.9020 C.ar      1 <0>        -0.0729
     13 C11        -0.0213    2.1677    6.0438 C.ar      1 <0>        -0.0704
     14 C12        -0.4612    1.5583    7.2454 C.ar      1 <0>         0.1382
     15 C13        -0.7519    0.1735    7.1798 C.ar      1 <0>        -0.1677
     16 C14        -0.6278   -0.5544    6.0286 C.ar      1 <0>         0.0127
     17 S1         -1.2536   -0.1870    8.8458 S.3       1 <0>         0.0394
     18 C15        -1.0533    1.4635    9.5017 C.2       1 <0>         0.3952
     19 N2         -0.6383    2.1343    8.4502 N.2       1 <0>        -0.5100
     20 N3         -1.2779    1.9190   10.7884 N.am      1 <0>        -0.6197
     21 C16        -1.0667    3.2153   11.0908 C.2       1 <0>         0.6998
     22 O2         -0.6789    3.9843   10.2327 O.2       1 <0>        -0.5005
     23 N4         -1.2855    3.6592   12.3444 N.am      1 <0>        -0.6717
     24 C17        -1.1635    5.0236   12.6354 C.ar      1 <0>         0.1502
     25 C18        -0.8166    5.4330   13.9160 C.ar      1 <0>        -0.1166
     26 C19        -0.6964    6.7791   14.2009 C.ar      1 <0>        -0.1310
     27 C20        -0.9215    7.7202   13.2104 C.ar      1 <0>         0.0841
     28 C21        -1.2680    7.3140   11.9327 C.ar      1 <0>        -0.1298
     29 C22        -1.3837    5.9687   11.6423 C.ar      1 <0>        -0.0970
     30 F1         -0.8033    9.0364   13.4910 F         1 <0>        -0.1381
     31 Cl1         1.8241   -2.6686    2.5903 Cl        1 <0>        -0.0447
     32 H1         -0.1846    1.9142    0.0134 H         1 <0>         0.0760
     33 H2         -1.7142    1.1447   -0.4727 H         1 <0>         0.0751
     34 H3         -1.2819    1.2554    1.2504 H         1 <0>         0.0684
     35 H4         -0.6326   -0.4771   -1.9221 H         1 <0>         0.1337
     36 H5          0.5082   -2.6521   -2.0716 H         1 <0>         0.1349
     37 H6          1.5909   -3.6189   -0.0839 H         1 <0>         0.1367
     38 H7          0.6793    0.8625    2.5287 H         1 <0>         0.4114
     39 H8          0.4473    1.9425    4.0030 H         1 <0>         0.1361
     40 H9          0.2141    3.2217    6.0378 H         1 <0>         0.1429
     41 H10        -0.8649   -1.6080    6.0211 H         1 <0>         0.1491
     42 H11        -1.5873    1.3055   11.4730 H         1 <0>         0.4295
     43 H12        -1.5275    3.0336   13.0451 H         1 <0>         0.4130
     44 H13        -0.6413    4.6993   14.6889 H         1 <0>         0.1380
     45 H14        -0.4269    7.0979   15.1970 H         1 <0>         0.1420
     46 H15        -1.4435    8.0496   11.1617 H         1 <0>         0.1410
     47 H16        -1.6492    5.6521   10.6445 H         1 <0>         0.1541
@<TRIPOS>BOND
     1    1    2 1
     2    1   32 1
     3    1   33 1
     4    1   34 1
     5    2    7 ar
     6    2    3 ar
     7    3    4 ar
     8    3   35 1
     9    4    5 ar
    10    4   36 1
    11    5    6 ar
    12    5   37 1
    13    6    7 ar
    14    6   31 1
    15    7    8 1
    16    8    9 am
    17    8   38 1
    18    9   10 2
    19    9   11 1
    20   11   16 ar
    21   11   12 ar
    22   12   13 ar
    23   12   39 1
    24   13   14 ar
    25   13   40 1
    26   14   19 1
    27   14   15 ar
    28   15   16 ar
    29   15   17 1
    30   16   41 1
    31   17   18 1
    32   18   19 2
    33   18   20 1
    34   20   21 am
    35   20   42 1
    36   21   22 2
    37   21   23 am
    38   23   24 1
    39   23   43 1
    40   24   29 ar
    41   24   25 ar
    42   25   26 ar
    43   25   44 1
    44   26   27 ar
    45   26   45 1
    46   27   28 ar
    47   27   30 1
    48   28   29 ar
    49   28   46 1
    50   29   47 1
@<TRIPOS>MOLECULE
CHEMBL102821
   33    34     0     0     0
SMALL
USER_CHARGES

@<TRIPOS>ATOM
      1 C1         -0.0167    1.3814    0.0096 C.ar      1 <0>        -0.1081
      2 C2          1.1642    2.0968    0.0022 C.ar      1 <0>        -0.1673
      3 C3          2.3806    1.4310   -0.0135 C.ar      1 <0>         0.1350
      4 C4          2.4046    0.0278   -0.0213 C.ar      1 <0>        -0.1605
      5 C5          1.2004   -0.6833   -0.0131 C.ar      1 <0>        -0.0648
      6 C6          0.0021   -0.0041    0.0020 C.ar      1 <0>        -0.1206
      7 C7         -1.2948   -0.7716    0.0103 C.3       1 <0>        -0.0633
      8 C8         -1.7475   -1.0236   -1.4293 C.3       1 <0>        -0.0799
      9 C9         -3.0444   -1.7911   -1.4210 C.ar      1 <0>        -0.0637
     10 C10        -3.0277   -3.1735   -1.4228 C.ar      1 <0>        -0.1072
     11 C11        -4.2147   -3.8822   -1.4153 C.ar      1 <0>        -0.1268
     12 C12        -5.4246   -3.2069   -1.4054 C.ar      1 <0>         0.0684
     13 C13        -5.4414   -1.8155   -1.4031 C.ar      1 <0>         0.0797
     14 C14        -4.2480   -1.1113   -1.4059 C.ar      1 <0>        -0.1283
     15 O1         -6.6264   -1.1483   -1.3934 O.3       1 <0>        -0.4897
     16 O2         -6.5932   -3.9025   -1.3984 O.3       1 <0>        -0.4901
     17 C15         3.6887   -0.6908   -0.0384 C.2       1 <0>         0.5189
     18 O3          3.7051   -1.9141   -0.0451 O.co2     1 <0>        -0.6923
     19 O4          4.7399   -0.0649   -0.0459 O.co2     1 <0>        -0.6718
     20 O5          3.5412    2.1322   -0.0217 O.3       1 <0>        -0.4760
     21 H1         -0.9611    1.9050    0.0260 H         1 <0>         0.1147
     22 H2          1.1406    3.1765    0.0082 H         1 <0>         0.1188
     23 H3          1.2099   -1.7633   -0.0194 H         1 <0>         0.1279
     24 H4         -1.1494   -1.7253    0.5177 H         1 <0>         0.0718
     25 H5         -2.0558   -0.1935    0.5345 H         1 <0>         0.0672
     26 H6         -1.8930   -0.0699   -1.9367 H         1 <0>         0.0759
     27 H7         -0.9865   -1.6017   -1.9536 H         1 <0>         0.0810
     28 H8         -2.0853   -3.7010   -1.4305 H         1 <0>         0.1338
     29 H9         -4.1989   -4.9620   -1.4174 H         1 <0>         0.1325
     30 H10        -4.2582   -0.0314   -1.4003 H         1 <0>         0.1327
     31 H11        -6.9626   -0.9567   -0.5072 H         1 <0>         0.3849
     32 H12        -6.9249   -4.1054   -0.5129 H         1 <0>         0.3840
     33 H13         3.8868    2.3312    0.8593 H         1 <0>         0.3830
@<TRIPOS>BOND
     1    1    6 ar
     2    1    2 ar
     3    1   21 1
     4    2    3 ar
     5    2   22 1
     6    3    4 ar
     7    3   20 1
     8    4    5 ar
     9    4   17 1
    10    5    6 ar
    11    5   23 1
    12    6    7 1
    13    7    8 1
    14    7   24 1
    15    7   25 1
    16    8    9 1
    17    8   26 1
    18    8   27 1
    19    9   14 ar
    20    9   10 ar
    21   10   11 ar
    22   10   28 1
    23   11   12 ar
    24   11   29 1
    25   12   13 ar
    26   12   16 1
    27   13   14 ar
    28   13   15 1
    29   14   30 1
    30   15   31 1
    31   16   32 1
    32   17   18 2
    33   17   19 1
    34   20   33 1
@<TRIPOS>MOLECULE
CHEMBL66376
   45    48     0     0     0
SMALL
USER_CHARGES

@<TRIPOS>ATOM
      1 C1         -2.3214    0.0994    0.8118 C.3       1 <0>        -0.1147
      2 C2         -1.1016   -0.6762    0.3859 C.ar      1 <0>        -0.0626
      3 C3         -1.0990   -1.3545   -0.8177 C.ar      1 <0>        -0.1115
      4 C4          0.0194   -2.0665   -1.2097 C.ar      1 <0>        -0.0948
      5 C5          1.1395   -2.1026   -0.3991 C.ar      1 <0>        -0.1131
      6 C6          1.1439   -1.4261    0.8058 C.ar      1 <0>        -0.0212
      7 C7          0.0226   -0.7051    1.2000 C.ar      1 <0>         0.1388
      8 N1          0.0251   -0.0145    2.4167 N.am      1 <0>        -0.6792
      9 C8         -0.3549   -0.6410    3.5479 C.2       1 <0>         0.5729
     10 O1         -0.6122   -1.8294    3.5278 O.2       1 <0>        -0.5125
     11 C9         -0.4587    0.1146    4.8100 C.ar      1 <0>        -0.1293
     12 C10        -0.1701    1.4863    4.8440 C.ar      1 <0>        -0.0706
     13 C11        -0.2590    2.2000    5.9930 C.ar      1 <0>        -0.0730
     14 C12        -0.6487    1.5837    7.2083 C.ar      1 <0>         0.1396
     15 C13        -0.9349    0.1976    7.1485 C.ar      1 <0>        -0.1682
     16 C14        -0.8521   -0.5251    5.9901 C.ar      1 <0>         0.0135
     17 S1         -1.3695   -0.1718    8.8313 S.3       1 <0>         0.0261
     18 C15        -1.1520    1.4772    9.4855 C.2       1 <0>         0.3846
     19 N2         -0.7816    2.1540    8.4214 N.2       1 <0>        -0.5153
     20 N3         -1.3285    1.9268   10.7822 N.am      1 <0>        -0.6192
     21 C16        -1.1121    3.2231   11.0814 C.2       1 <0>         0.5097
     22 O2         -0.7627    3.9953   10.2141 O.2       1 <0>        -0.4571
     23 C17        -1.3044    3.7127   12.4936 C.3       1 <0>        -0.1025
     24 C18        -0.9958    5.2098   12.5607 C.3       1 <0>        -0.1494
     25 C19         0.1862    5.6493   13.4272 C.3       1 <0>        -0.1763
     26 C20        -1.2459    5.9237   13.8906 C.3       1 <0>        -0.1750
     27 Cl1         2.5499   -1.4716    1.8231 Cl        1 <0>        -0.0571
     28 H1         -2.2503    1.1215    0.4398 H         1 <0>         0.0772
     29 H2         -3.2142   -0.3745    0.4037 H         1 <0>         0.0737
     30 H3         -2.3822    0.1123    1.9000 H         1 <0>         0.0674
     31 H4         -1.9719   -1.3288   -1.4531 H         1 <0>         0.1347
     32 H5          0.0184   -2.5960   -2.1510 H         1 <0>         0.1368
     33 H6          2.0112   -2.6603   -0.7079 H         1 <0>         0.1381
     34 H7          0.3003    0.9151    2.4462 H         1 <0>         0.4105
     35 H8          0.1300    1.9853    3.9344 H         1 <0>         0.1367
     36 H9         -0.0288    3.2551    5.9822 H         1 <0>         0.1422
     37 H10        -1.0838   -1.5799    5.9876 H         1 <0>         0.1485
     38 H11        -1.6080    1.3091   11.4759 H         1 <0>         0.4315
     39 H12        -2.3359    3.5403   12.8006 H         1 <0>         0.1079
     40 H13        -0.6318    3.1728   13.1601 H         1 <0>         0.1044
     41 H14        -1.1850    5.7703   11.6452 H         1 <0>         0.1202
     42 H15         0.7439    4.8719   13.9494 H         1 <0>         0.0953
     43 H16         0.7749    6.4990   13.0817 H         1 <0>         0.0970
     44 H17        -1.5993    6.9540   13.8501 H         1 <0>         0.0983
     45 H18        -1.6303    5.3268   14.7177 H         1 <0>         0.0968
@<TRIPOS>BOND
     1    1    2 1
     2    1   28 1
     3    1   29 1
     4    1   30 1
     5    2    7 ar
     6    2    3 ar
     7    3    4 ar
     8    3   31 1
     9    4    5 ar
    10    4   32 1
    11    5    6 ar
    12    5   33 1
    13    6    7 ar
    14    6   27 1
    15    7    8 1
    16    8    9 am
    17    8   34 1
    18    9   10 2
    19    9   11 1
    20   11   16 ar
    21   11   12 ar
    22   12   13 ar
    23   12   35 1
    24   13   14 ar
    25   13   36 1
    26   14   19 1
    27   14   15 ar
    28   15   16 ar
    29   15   17 1
    30   16   37 1
    31   17   18 1
    32   18   19 2
    33   18   20 1
    34   20   21 am
    35   20   38 1
    36   21   22 2
    37   21   23 1
    38   23   24 1
    39   23   39 1
    40   23   40 1
    41   24   26 1
    42   24   25 1
    43   24   41 1
    44   25   26 1
    45   25   42 1
    46   25   43 1
    47   26   44 1
    48   26   45 1
@<TRIPOS>MOLECULE
CHEMBL427233
   55    59     0     0     0
SMALL
USER_CHARGES

@<TRIPOS>ATOM
      1 C1          0.0313    1.5035    0.0088 C.3       1 <0>        -0.1262
      2 C2          0.0395   -0.0035    0.0008 C.ar      1 <0>        -0.0402
      3 C3          0.0400   -0.6862   -1.2002 C.ar      1 <0>        -0.1233
      4 C4          0.0475   -2.0662   -1.2163 C.ar      1 <0>        -0.0793
      5 C5          0.0543   -2.7807   -0.0161 C.ar      1 <0>        -0.1419
      6 C6          0.0539   -2.0964    1.1980 C.ar      1 <0>        -0.0391
      7 C7          0.0525   -0.7052    1.2058 C.ar      1 <0>        -0.0522
      8 C8          0.0586    0.0307    2.4941 C.ar      1 <0>        -0.0759
      9 C9          0.9850    1.0650    2.7006 C.ar      1 <0>        -0.0508
     10 C10         1.0124    1.7559    3.8711 C.ar      1 <0>        -0.1207
     11 C11         0.1049    1.4370    4.8935 C.ar      1 <0>         0.2176
     12 C12        -0.8358    0.3929    4.6946 C.ar      1 <0>        -0.2148
     13 C13        -0.8524   -0.3044    3.4799 C.ar      1 <0>        -0.0359
     14 C14        -1.7346    0.0943    5.7364 C.ar      1 <0>         0.2444
     15 N1         -1.6630    0.7961    6.8480 N.ar      1 <0>        -0.5586
     16 C15        -0.7673    1.7696    7.0005 C.ar      1 <0>         0.5691
     17 N2          0.0990    2.0934    6.0602 N.ar      1 <0>        -0.5743
     18 N3         -0.7444    2.4693    8.1933 N.pl3     1 <0>        -0.7004
     19 C16        -1.6934    2.1338    9.2577 C.3       1 <0>         0.1037
     20 C17         0.0613   -4.2589   -0.0337 C.2       1 <0>         0.5605
     21 O1          0.0672   -4.8792    1.0117 O.2       1 <0>        -0.5123
     22 N4          0.0613   -4.9189   -1.2088 N.am      1 <0>        -0.6657
     23 C18         0.1847   -6.3117   -1.2285 C.ar      1 <0>         0.1624
     24 C19         0.8043   -6.9679   -0.1739 C.ar      1 <0>        -0.1318
     25 C20         0.9245   -8.3433   -0.1955 C.ar      1 <0>        -0.0973
     26 C21         0.4285   -9.0638   -1.2654 C.ar      1 <0>        -0.1249
     27 C22        -0.1903   -8.4140   -2.3207 C.ar      1 <0>        -0.0756
     28 C23        -0.3186   -7.0388   -2.3023 C.ar      1 <0>        -0.1329
     29 C24        -1.0305   -6.5737   -3.5545 C.3       1 <0>        -0.0777
     30 C25        -0.9396   -7.7619   -4.5354 C.3       1 <0>        -0.1196
     31 C26        -0.8054   -8.9684   -3.5880 C.3       1 <0>        -0.0830
     32 H1          1.0569    1.8725    0.0030 H         1 <0>         0.0790
     33 H2         -0.4912    1.8686   -0.8754 H         1 <0>         0.0722
     34 H3         -0.4778    1.8593    0.9045 H         1 <0>         0.0754
     35 H4          0.0340   -0.1376   -2.1305 H         1 <0>         0.1341
     36 H5          0.0478   -2.5945   -2.1583 H         1 <0>         0.1259
     37 H6          0.0591   -2.6439    2.1290 H         1 <0>         0.1403
     38 H7          1.6863    1.3154    1.9183 H         1 <0>         0.1342
     39 H8          1.7316    2.5487    4.0143 H         1 <0>         0.1397
     40 H9         -1.5666   -1.0977    3.3159 H         1 <0>         0.1365
     41 H10        -2.4664   -0.6923    5.6261 H         1 <0>         0.1788
     42 H11        -0.0999    3.1822    8.3251 H         1 <0>         0.4166
     43 H12        -1.5248    2.7868   10.1140 H         1 <0>         0.0774
     44 H13        -2.7115    2.2690    8.8926 H         1 <0>         0.0604
     45 H14        -1.5501    1.0960    9.5585 H         1 <0>         0.0605
     46 H15        -0.0244   -4.4277   -2.0409 H         1 <0>         0.4092
     47 H16         1.1919   -6.4038    0.6616 H         1 <0>         0.1473
     48 H17         1.4065   -8.8561    0.6237 H         1 <0>         0.1284
     49 H18         0.5241  -10.1394   -1.2789 H         1 <0>         0.1214
     50 H19        -2.0730   -6.3443   -3.3338 H         1 <0>         0.0798
     51 H20        -0.5302   -5.6998   -3.9715 H         1 <0>         0.0697
     52 H21        -1.8439   -7.8357   -5.1395 H         1 <0>         0.0787
     53 H22        -0.0559   -7.6757   -5.1677 H         1 <0>         0.0729
     54 H23        -0.1571   -9.7301   -4.0212 H         1 <0>         0.0779
     55 H24        -1.7914   -9.3837   -3.3796 H         1 <0>         0.0808
@<TRIPOS>BOND
     1    1    2 1
     2    1   32 1
     3    1   33 1
     4    1   34 1
     5    2    7 ar
     6    2    3 ar
     7    3    4 ar
     8    3   35 1
     9    4    5 ar
    10    4   36 1
    11    5    6 ar
    12    5   20 1
    13    6    7 ar
    14    6   37 1
    15    7    8 1
    16    8   13 ar
    17    8    9 ar
    18    9   10 ar
    19    9   38 1
    20   10   11 ar
    21   10   39 1
    22   11   17 ar
    23   11   12 ar
    24   12   13 ar
    25   12   14 ar
    26   13   40 1
    27   14   15 ar
    28   14   41 1
    29   15   16 ar
    30   16   17 ar
    31   16   18 1
    32   18   19 1
    33   18   42 1
    34   19   43 1
    35   19   44 1
    36   19   45 1
    37   20   21 2
    38   20   22 am
    39   22   23 1
    40   22   46 1
    41   23   28 ar
    42   23   24 ar
    43   24   25 ar
    44   24   47 1
    45   25   26 ar
    46   25   48 1
    47   26   27 ar
    48   26   49 1
    49   27   31 1
    50   27   28 ar
    51   28   29 1
    52   29   30 1
    53   29   50 1
    54   29   51 1
    55   30   31 1
    56   30   52 1
    57   30   53 1
    58   31   54 1
    59   31   55 1
@<TRIPOS>MOLECULE
CHEMBL24828
   55    58     0     0     0
SMALL
USER_CHARGES

@<TRIPOS>ATOM
      1 C1          2.6309    1.2660   -0.6092 C.3       1 <0>        -0.0474
      2 N1          2.4157   -0.1864   -0.5609 N.4       1 <0>        -0.3861
      3 C2          0.9980   -0.4779   -0.8055 C.3       1 <0>        -0.0039
      4 C3          0.7828   -1.9925   -0.8367 C.3       1 <0>        -0.1426
      5 C4          1.2038   -2.5903    0.5089 C.3       1 <0>        -0.0980
      6 C5          2.6625   -2.2170    0.7882 C.3       1 <0>        -0.1435
      7 C6          2.8080   -0.6940    0.7592 C.3       1 <0>        -0.0066
      8 C7          1.0662   -4.1132    0.4576 C.3       1 <0>         0.0553
      9 O1          1.3470   -4.6606    1.7474 O.3       1 <0>        -0.2959
     10 C8          1.2687   -6.0108    1.8748 C.ar      1 <0>         0.1621
     11 C9          0.9356   -6.7800    0.7819 C.ar      1 <0>        -0.1791
     12 C10         0.8556   -8.1714    0.9161 C.ar      1 <0>         0.2019
     13 C11         1.1188   -8.7661    2.1751 C.ar      1 <0>        -0.1785
     14 C12         1.4552   -7.9617    3.2703 C.ar      1 <0>        -0.1424
     15 C13         1.5332   -6.6066    3.1158 C.ar      1 <0>         0.1099
     16 O2          1.8659   -5.8267    4.1789 O.3       1 <0>        -0.3030
     17 C14         2.1239   -6.4927    5.4166 C.3       1 <0>         0.0198
     18 C15         1.0305  -10.1747    2.2796 C.ar      1 <0>         0.4667
     19 N2          0.7062  -10.8654    1.1943 N.ar      1 <0>        -0.5768
     20 C16         0.4689  -10.2662    0.0383 C.ar      1 <0>         0.3479
     21 N3          0.5356   -8.9654   -0.1178 N.ar      1 <0>        -0.5414
     22 N4          1.2758  -10.8129    3.4786 N.pl3     1 <0>        -0.6297
     23 C17         1.3174  -12.2109    3.5315 C.ar      1 <0>         0.1376
     24 C18         1.5041  -12.9458    2.3685 C.ar      1 <0>        -0.1039
     25 C19         1.5448  -14.3255    2.4234 C.ar      1 <0>        -0.0733
     26 C20         1.3998  -14.9764    3.6357 C.ar      1 <0>        -0.0857
     27 C21         1.2135  -14.2482    4.7973 C.ar      1 <0>        -0.1007
     28 C22         1.1776  -12.8666    4.7500 C.ar      1 <0>         0.0687
     29 F1          1.0013  -12.1551    5.8848 F         1 <0>        -0.1330
     30 Br1         1.4557  -16.8653    3.7050 Br        1 <0>        -0.0295
     31 H1          3.6846    1.4831   -0.4343 H         1 <0>         0.1242
     32 H2          2.3398    1.6440   -1.5893 H         1 <0>         0.1242
     33 H3          2.0279    1.7484    0.1601 H         1 <0>         0.1219
     34 H4          0.3953   -0.0421   -0.0087 H         1 <0>         0.1305
     35 H5          0.6991   -0.0490   -1.7619 H         1 <0>         0.1344
     36 H6         -0.2707   -2.2068   -1.0166 H         1 <0>         0.1175
     37 H7          1.3850   -2.4293   -1.6334 H         1 <0>         0.0935
     38 H8          0.5678   -2.1921    1.2995 H         1 <0>         0.1030
     39 H9          2.9526   -2.5918    1.7698 H         1 <0>         0.1210
     40 H10         3.3037   -2.6585    0.0252 H         1 <0>         0.0893
     41 H11         3.8454   -0.4248    0.9579 H         1 <0>         0.1325
     42 H12         2.1667   -0.2536    1.5227 H         1 <0>         0.1299
     43 H13         0.0499   -4.3766    0.1646 H         1 <0>         0.0787
     44 H14         1.7703   -4.5174   -0.2697 H         1 <0>         0.0742
     45 H15         0.7373   -6.3133   -0.1716 H         1 <0>         0.1540
     46 H16         1.6562   -8.4107    4.2318 H         1 <0>         0.1414
     47 H17         2.3771   -5.7565    6.1794 H         1 <0>         0.1093
     48 H18         1.2355   -7.0441    5.7245 H         1 <0>         0.0601
     49 H19         2.9558   -7.1855    5.2899 H         1 <0>         0.0596
     50 H20         0.2090  -10.8754   -0.8147 H         1 <0>         0.2036
     51 H21         1.4193  -10.2926    4.2845 H         1 <0>         0.4241
     52 H22         1.6171  -12.4391    1.4214 H         1 <0>         0.1818
     53 H23         1.6896  -14.8970    1.5185 H         1 <0>         0.1462
     54 H24         1.1003  -14.7590    5.7421 H         1 <0>         0.1515
     55 H25         2.9761   -0.6322   -1.2717 H         1 <0>         0.4246
@<TRIPOS>BOND
     1    1    2 1
     2    1   31 1
     3    1   32 1
     4    1   33 1
     5    2    7 1
     6    2    3 1
     7    2   55 1
     8    3    4 1
     9    3   34 1
    10    3   35 1
    11    4    5 1
    12    4   36 1
    13    4   37 1
    14    5    6 1
    15    5    8 1
    16    5   38 1
    17    6    7 1
    18    6   39 1
    19    6   40 1
    20    7   41 1
    21    7   42 1
    22    8    9 1
    23    8   43 1
    24    8   44 1
    25    9   10 1
    26   10   15 ar
    27   10   11 ar
    28   11   12 ar
    29   11   45 1
    30   12   21 ar
    31   12   13 ar
    32   13   14 ar
    33   13   18 ar
    34   14   15 ar
    35   14   46 1
    36   15   16 1
    37   16   17 1
    38   17   47 1
    39   17   48 1
    40   17   49 1
    41   18   19 ar
    42   18   22 1
    43   19   20 ar
    44   20   21 ar
    45   20   50 1
    46   22   23 1
    47   22   51 1
    48   23   28 ar
    49   23   24 ar
    50   24   25 ar
    51   24   52 1
    52   25   26 ar
    53   25   53 1
    54   26   27 ar
    55   26   30 1
    56   27   28 ar
    57   27   54 1
    58   28   29 1
@<TRIPOS>MOLECULE
CHEMBL403200
   46    48     0     0     0
SMALL
USER_CHARGES

@<TRIPOS>ATOM
      1 C1         -0.0102    1.4928    0.0039 C.3       1 <0>        -0.1238
      2 C2          0.0147   -0.0140    0.0019 C.ar      1 <0>        -0.0752
      3 C3          0.0267   -0.7012   -1.1976 C.ar      1 <0>        -0.1061
      4 C4          0.0495   -2.0808   -1.2076 C.ar      1 <0>        -0.0928
      5 C5          0.0607   -2.7876   -0.0034 C.ar      1 <0>        -0.1272
      6 C6          0.0486   -2.0944    1.2067 C.ar      1 <0>        -0.0493
      7 C7          0.0314   -0.7079    1.2059 C.ar      1 <0>         0.1407
      8 N1          0.0250   -0.0078    2.4168 N.am      1 <0>        -0.6695
      9 C8         -0.6322   -0.5089    3.4814 C.2       1 <0>         0.6203
     10 O1         -1.1507   -1.6085    3.4145 O.2       1 <0>        -0.5065
     11 C9         -0.7226    0.2680    4.7166 C.2       1 <0>        -0.3394
     12 C10        -1.3358   -0.0495    5.9205 C.2       1 <0>         0.1951
     13 N2         -1.2568    0.8502    6.8684 N.2       1 <0>        -0.5929
     14 C11        -0.6257    1.9961    6.6812 C.2       1 <0>         0.3450
     15 S1         -0.0679    1.8852    5.0973 S.3       1 <0>         0.1102
     16 N3         -0.4584    3.0333    7.5736 N.pl3     1 <0>        -0.6609
     17 C12        -1.0191    2.9358    8.9235 C.3       1 <0>         0.1452
     18 C13        -0.0377    2.1911    9.8308 C.3       1 <0>        -0.1663
     19 C14        -1.2607    4.3411    9.4782 C.3       1 <0>        -0.1639
     20 C15         0.0847   -4.2656   -0.0112 C.2       1 <0>         0.5748
     21 O2          0.0943   -4.8788    1.0382 O.2       1 <0>        -0.4938
     22 N4          0.0958   -4.9332   -1.1820 N.am      1 <0>        -0.6313
     23 C16         0.1184   -6.3272   -1.1893 C.2       1 <0>         0.3306
     24 C17         0.1260   -7.1650   -0.0514 C.2       1 <0>        -0.2844
     25 C18         0.1481   -8.4416   -0.4732 C.2       1 <0>         0.0538
     26 O3          0.1546   -8.4391   -1.8155 O.3       1 <0>        -0.0707
     27 N5          0.1307   -7.0918   -2.2512 N.2       1 <0>        -0.3530
     28 H1          1.0113    1.8731   -0.0000 H         1 <0>         0.0792
     29 H2         -0.5338    1.8487   -0.8834 H         1 <0>         0.0788
     30 H3         -0.5261    1.8464    0.8966 H         1 <0>         0.0683
     31 H4          0.0177   -0.1564   -2.1301 H         1 <0>         0.1387
     32 H5          0.0584   -2.6139   -2.1468 H         1 <0>         0.1294
     33 H6          0.0572   -2.6356    2.1413 H         1 <0>         0.1593
     34 H7          0.4936    0.8383    2.4903 H         1 <0>         0.4107
     35 H8         -1.8504   -0.9875    6.0674 H         1 <0>         0.1867
     36 H9          0.0305    3.8278    7.3077 H         1 <0>         0.4202
     37 H10        -1.9634    2.3926    8.8864 H         1 <0>         0.0951
     38 H11        -0.4549    2.1186   10.8352 H         1 <0>         0.0717
     39 H12         0.1344    1.1900    9.4357 H         1 <0>         0.0629
     40 H13         0.9066    2.7343    9.8680 H         1 <0>         0.0583
     41 H14        -1.9598    4.8716    8.8318 H         1 <0>         0.0646
     42 H15        -1.6778    4.2685   10.4826 H         1 <0>         0.0807
     43 H16        -0.3164    4.8843    9.5153 H         1 <0>         0.0640
     44 H17         0.0881   -4.4439   -2.0194 H         1 <0>         0.4215
     45 H18         0.1162   -6.8372    0.9776 H         1 <0>         0.1835
     46 H19         0.1588   -9.3175    0.1586 H         1 <0>         0.2174
@<TRIPOS>BOND
     1    1    2 1
     2    1   28 1
     3    1   29 1
     4    1   30 1
     5    2    7 ar
     6    2    3 ar
     7    3    4 ar
     8    3   31 1
     9    4    5 ar
    10    4   32 1
    11    5    6 ar
    12    5   20 1
    13    6    7 ar
    14    6   33 1
    15    7    8 1
    16    8    9 am
    17    8   34 1
    18    9   10 2
    19    9   11 1
    20   11   15 1
    21   11   12 2
    22   12   13 1
    23   12   35 1
    24   13   14 2
    25   14   15 1
    26   14   16 1
    27   16   17 1
    28   16   36 1
    29   17   18 1
    30   17   19 1
    31   17   37 1
    32   18   38 1
    33   18   39 1
    34   18   40 1
    35   19   41 1
    36   19   42 1
    37   19   43 1
    38   20   21 2
    39   20   22 am
    40   22   23 1
    41   22   44 1
    42   23   27 2
    43   23   24 1
    44   24   25 2
    45   24   45 1
    46   25   26 1
    47   25   46 1
    48   26   27 1
@<TRIPOS>MOLECULE
CHEMBL327127
   45    48     0     0     0
SMALL
USER_CHARGES

@<TRIPOS>ATOM
      1 C1         -0.0518    1.4095    0.7072 C.3       1 <0>         0.0699
      2 N1         -0.0222   -0.0407    0.5013 N.am      1 <0>        -0.5062
      3 C2         -1.1943   -0.7197    0.2833 C.ar      1 <0>         0.4668
      4 C3         -1.1833   -2.1170    0.0827 C.ar      1 <0>        -0.2771
      5 C4          0.0376   -2.8292    0.1047 C.2       1 <0>         0.0314
      6 C5          1.2022   -2.1432    0.3229 C.2       1 <0>        -0.1644
      7 C6          1.1560   -0.6931    0.5223 C.2       1 <0>         0.5578
      8 O1          2.1879   -0.0743    0.7125 O.2       1 <0>        -0.5027
      9 C7          2.4981   -2.8608    0.3523 C.ar      1 <0>        -0.0099
     10 C8          2.9864   -3.3765    1.5535 C.ar      1 <0>        -0.0067
     11 C9          4.1949   -4.0448    1.5740 C.ar      1 <0>        -0.1062
     12 C10         4.9210   -4.2031    0.4073 C.ar      1 <0>        -0.0875
     13 C11         4.4428   -3.6940   -0.7867 C.ar      1 <0>        -0.1062
     14 C12         3.2328   -3.0290   -0.8220 C.ar      1 <0>        -0.0067
     15 Cl1         2.6309   -2.3970   -2.3227 Cl        1 <0>        -0.0503
     16 Cl2         2.0772   -3.1779    3.0190 Cl        1 <0>        -0.0502
     17 C13        -2.4037   -2.7731   -0.1374 C.ar      1 <0>         0.2643
     18 N2         -3.5127   -2.0575   -0.1480 N.ar      1 <0>        -0.5676
     19 C14        -3.4850   -0.7433    0.0446 C.ar      1 <0>         0.6090
     20 N3         -2.3584   -0.0805    0.2561 N.ar      1 <0>        -0.5947
     21 N4         -4.6757   -0.0424    0.0236 N.pl3     1 <0>        -0.6255
     22 C15        -5.8891   -0.7288   -0.0804 C.ar      1 <0>         0.1535
     23 C16        -6.0350   -1.9782    0.5094 C.ar      1 <0>        -0.1022
     24 C17        -7.2349   -2.6534    0.4048 C.ar      1 <0>        -0.1022
     25 C18        -8.2907   -2.0876   -0.2865 C.ar      1 <0>        -0.1109
     26 C19        -8.1487   -0.8445   -0.8751 C.ar      1 <0>        -0.0740
     27 C20        -6.9533   -0.1607   -0.7686 C.ar      1 <0>        -0.1227
     28 C21        -9.3017   -0.2321   -1.6279 C.3       1 <0>         0.1166
     29 O2        -10.0954    0.5477   -0.7313 O.3       1 <0>        -0.5676
     30 H1          0.9636    1.7757    0.8590 H         1 <0>         0.1008
     31 H2         -0.4849    1.8921   -0.1690 H         1 <0>         0.0802
     32 H3         -0.6561    1.6396    1.5847 H         1 <0>         0.0804
     33 H4          0.0515   -3.8983   -0.0479 H         1 <0>         0.1507
     34 H5          4.5740   -4.4444    2.5029 H         1 <0>         0.1438
     35 H6          5.8656   -4.7262    0.4287 H         1 <0>         0.1454
     36 H7          5.0149   -3.8203   -1.6940 H         1 <0>         0.1438
     37 H8         -2.4351   -3.8411   -0.2952 H         1 <0>         0.1884
     38 H9         -4.6695    0.9259    0.0809 H         1 <0>         0.4268
     39 H10        -5.2107   -2.4209    1.0489 H         1 <0>         0.1364
     40 H11        -7.3490   -3.6247    0.8631 H         1 <0>         0.1294
     41 H12        -9.2280   -2.6180   -0.3672 H         1 <0>         0.1250
     42 H13        -6.8447    0.8125   -1.2242 H         1 <0>         0.1259
     43 H14        -8.9179    0.4071   -2.4231 H         1 <0>         0.0551
     44 H15        -9.9139   -1.0230   -2.0611 H         1 <0>         0.0580
     45 H16       -10.8573    0.9727   -1.1485 H         1 <0>         0.3824
@<TRIPOS>BOND
     1    1    2 1
     2    1   30 1
     3    1   31 1
     4    1   32 1
     5    2    7 am
     6    2    3 1
     7    3   20 ar
     8    3    4 ar
     9    4    5 1
    10    4   17 ar
    11    5    6 2
    12    5   33 1
    13    6    7 1
    14    6    9 1
    15    7    8 2
    16    9   14 ar
    17    9   10 ar
    18   10   11 ar
    19   10   16 1
    20   11   12 ar
    21   11   34 1
    22   12   13 ar
    23   12   35 1
    24   13   14 ar
    25   13   36 1
    26   14   15 1
    27   17   18 ar
    28   17   37 1
    29   18   19 ar
    30   19   20 ar
    31   19   21 1
    32   21   22 1
    33   21   38 1
    34   22   27 ar
    35   22   23 ar
    36   23   24 ar
    37   23   39 1
    38   24   25 ar
    39   24   40 1
    40   25   26 ar
    41   25   41 1
    42   26   27 ar
    43   26   28 1
    44   27   42 1
    45   28   29 1
    46   28   43 1
    47   28   44 1
    48   29   45 1
@<TRIPOS>MOLECULE
CHEMBL281675
   57    61     0     0     0
SMALL
USER_CHARGES

@<TRIPOS>ATOM
      1 C1          0.1199    0.9011    3.4907 C.3       1 <0>        -0.1250
      2 C2          0.2213   -0.5475    3.0875 C.2       1 <0>         0.1481
      3 C3         -0.7443   -1.3968    3.4747 C.2       1 <0>        -0.1440
      4 C4         -0.6601   -2.8067    3.0905 C.ar      1 <0>         0.0390
      5 C5         -1.6391   -3.7318    3.4673 C.ar      1 <0>        -0.1315
      6 C6         -1.5309   -5.0372    3.0932 C.ar      1 <0>        -0.0267
      7 C7         -0.4414   -5.4761    2.3265 C.ar      1 <0>         0.0613
      8 C8          0.5528   -4.5678    1.9358 C.ar      1 <0>         0.1057
      9 C9          0.4472   -3.2254    2.3177 C.ar      1 <0>        -0.1395
     10 C10         1.4503   -2.2277    1.9428 C.2       1 <0>         0.5493
     11 N1          1.2892   -0.9490    2.3365 N.am      1 <0>        -0.6197
     12 O1          2.4189   -2.5491    1.2773 O.2       1 <0>        -0.5393
     13 N2          1.4727   -5.2905    1.2054 N.pl3     1 <0>        -0.4912
     14 C11         1.0354   -6.5840    1.1660 C.2       1 <0>         0.5354
     15 N3         -0.0904   -6.6904    1.8261 N.2       1 <0>        -0.5134
     16 N4          1.6829   -7.6225    0.5267 N.pl3     1 <0>        -0.6565
     17 C12         1.1976   -8.9294    0.6470 C.ar      1 <0>         0.1774
     18 C13        -0.0020   -9.2852    0.0425 C.ar      1 <0>        -0.0098
     19 C14        -0.4781  -10.5773    0.1631 C.ar      1 <0>        -0.0998
     20 C15         0.2377  -11.5152    0.8841 C.ar      1 <0>        -0.0905
     21 C16         1.4316  -11.1646    1.4874 C.ar      1 <0>        -0.1004
     22 C17         1.9168   -9.8760    1.3664 C.ar      1 <0>        -0.0282
     23 Cl1         3.4196   -9.4391    2.1177 Cl        1 <0>        -0.0490
     24 Cl2        -0.9018   -8.1084   -0.8626 Cl        1 <0>        -0.0383
     25 C18         2.6930   -4.7676    0.5861 C.3       1 <0>         0.0858
     26 C19        -1.9052   -0.9022    4.2987 C.3       1 <0>        -0.0835
     27 C20        -3.0612   -0.5714    3.3902 C.2       1 <0>         0.5161
     28 O2         -2.9531   -0.7224    2.1917 O.2       1 <0>        -0.5200
     29 N5         -4.2152   -0.1078    3.9096 N.am      1 <0>        -0.6202
     30 C21        -4.3679    0.0894    5.3598 C.3       1 <0>         0.0694
     31 C22        -4.9070    1.5040    5.6013 C.3       1 <0>         0.0457
     32 O3         -6.0785    1.7033    4.8066 O.3       1 <0>        -0.3776
     33 C23        -5.8502    1.6250    3.3975 C.3       1 <0>         0.0477
     34 C24        -5.3576    0.2219    3.0426 C.3       1 <0>         0.0761
     35 H1          0.9745    1.4493    3.0943 H         1 <0>         0.0753
     36 H2         -0.8012    1.3257    3.0914 H         1 <0>         0.0866
     37 H3          0.1128    0.9759    4.5781 H         1 <0>         0.0911
     38 H4         -2.4842   -3.4099    4.0577 H         1 <0>         0.1319
     39 H5         -2.2927   -5.7426    3.3908 H         1 <0>         0.1347
     40 H6          2.4743   -7.4461   -0.0058 H         1 <0>         0.4211
     41 H7         -1.4105  -10.8545   -0.3062 H         1 <0>         0.1445
     42 H8         -0.1367  -12.5240    0.9767 H         1 <0>         0.1459
     43 H9          1.9878  -11.8998    2.0501 H         1 <0>         0.1446
     44 H10         3.4314   -4.5568    1.3597 H         1 <0>         0.0775
     45 H11         3.0941   -5.5069   -0.1072 H         1 <0>         0.0640
     46 H12         2.4615   -3.8501    0.0450 H         1 <0>         0.1130
     47 H13        -2.2070   -1.6772    5.0032 H         1 <0>         0.1088
     48 H14        -1.6069   -0.0087    4.8471 H         1 <0>         0.1063
     49 H15        -5.0694   -0.6437    5.7581 H         1 <0>         0.0823
     50 H16        -3.4007   -0.0235    5.8495 H         1 <0>         0.0968
     51 H17        -5.1575    1.6231    6.6554 H         1 <0>         0.1088
     52 H18        -4.1486    2.2352    5.3216 H         1 <0>         0.0569
     53 H19        -6.7793    1.8312    2.8661 H         1 <0>         0.1083
     54 H20        -5.0953    2.3567    3.1098 H         1 <0>         0.0559
     55 H21        -5.0454    0.1968    1.9986 H         1 <0>         0.1024
     56 H22        -6.1604   -0.4976    3.2037 H         1 <0>         0.0771
     57 H23         1.9560   -0.2924    2.0811 H         1 <0>         0.4137
@<TRIPOS>BOND
     1    1    2 1
     2    1   35 1
     3    1   36 1
     4    1   37 1
     5    2   11 1
     6    2    3 2
     7    3    4 1
     8    3   26 1
     9    4    9 ar
    10    4    5 ar
    11    5    6 ar
    12    5   38 1
    13    6    7 ar
    14    6   39 1
    15    7   15 1
    16    7    8 ar
    17    8    9 ar
    18    8   13 1
    19    9   10 1
    20   10   11 am
    21   10   12 2
    22   11   57 1
    23   13   14 1
    24   13   25 1
    25   14   15 2
    26   14   16 1
    27   16   17 1
    28   16   40 1
    29   17   22 ar
    30   17   18 ar
    31   18   19 ar
    32   18   24 1
    33   19   20 ar
    34   19   41 1
    35   20   21 ar
    36   20   42 1
    37   21   22 ar
    38   21   43 1
    39   22   23 1
    40   25   44 1
    41   25   45 1
    42   25   46 1
    43   26   27 1
    44   26   47 1
    45   26   48 1
    46   27   28 2
    47   27   29 am
    48   29   34 1
    49   29   30 1
    50   30   31 1
    51   30   49 1
    52   30   50 1
    53   31   32 1
    54   31   51 1
    55   31   52 1
    56   32   33 1
    57   33   34 1
    58   33   53 1
    59   33   54 1
    60   34   55 1
    61   34   56 1
@<TRIPOS>MOLECULE
CHEMBL330903
   40    43     0     0     0
SMALL
USER_CHARGES

@<TRIPOS>ATOM
      1 C1         -7.3063    4.3508    3.2831 C.3       1 <0>        -0.1382
      2 C2         -6.0010    3.5536    3.3203 C.3       1 <0>        -0.0504
      3 C3         -6.1795    2.3304    2.4509 C.ar      1 <0>        -0.0193
      4 C4         -6.5107    2.4418    1.1201 C.ar      1 <0>        -0.1207
      5 C5         -6.6690    1.3072    0.3414 C.ar      1 <0>        -0.0523
      6 C6         -6.4952    0.0504    0.8972 C.ar      1 <0>         0.0269
      7 C7         -6.1566   -0.0831    2.2552 C.ar      1 <0>         0.1590
      8 C8         -5.9970    1.0771    3.0408 C.ar      1 <0>        -0.1191
      9 C9         -5.6445    0.9873    4.4626 C.2       1 <0>         0.5639
     10 O1         -5.4890   -0.1113    4.9597 O.2       1 <0>        -0.4680
     11 N1         -5.4874    2.0730    5.2323 N.am      1 <0>        -0.6736
     12 C10        -5.6362    3.3270    4.7714 C.2       1 <0>         0.5443
     13 O2         -5.4801    4.2718    5.5150 O.2       1 <0>        -0.4895
     14 N2         -6.0542   -1.4005    2.5147 N.2       1 <0>        -0.5030
     15 C11        -6.3024   -2.0891    1.4256 C.2       1 <0>         0.5592
     16 N3         -6.5812   -1.2390    0.3954 N.pl3     1 <0>        -0.6154
     17 H1         -6.7988   -1.4896   -0.5161 H         1 <0>         0.4247
     18 N4         -6.2839   -3.4639    1.3358 N.pl3     1 <0>        -0.6533
     19 C12        -6.1054   -4.2380    2.4878 C.ar      1 <0>         0.1678
     20 C13        -4.8327   -4.4172    3.0161 C.ar      1 <0>        -0.0037
     21 C14        -4.6602   -5.1825    4.1542 C.ar      1 <0>        -0.1009
     22 C15        -5.7521   -5.7695    4.7668 C.ar      1 <0>        -0.0825
     23 C16        -7.0200   -5.5933    4.2440 C.ar      1 <0>        -0.1029
     24 C17        -7.2010   -4.8246    3.1095 C.ar      1 <0>        -0.0180
     25 Cl1        -8.7941   -4.5982    2.4581 Cl        1 <0>        -0.0481
     26 Cl2        -3.4611   -3.6814    2.2475 Cl        1 <0>        -0.0419
     27 C18        -4.9085    4.4206    2.6913 C.3       1 <0>        -0.1385
     28 H2         -7.1637    5.3052    3.7900 H         1 <0>         0.0779
     29 H3         -7.5938    4.5291    2.2469 H         1 <0>         0.0786
     30 H4         -8.0914    3.7861    3.7860 H         1 <0>         0.0629
     31 H5         -6.6483    3.4186    0.6805 H         1 <0>         0.1437
     32 H6         -6.9290    1.4028   -0.7024 H         1 <0>         0.1338
     33 H7         -5.2544    1.9481    6.1656 H         1 <0>         0.4145
     34 H8         -6.3947   -3.8952    0.4741 H         1 <0>         0.4241
     35 H9         -3.6713   -5.3226    4.5652 H         1 <0>         0.1456
     36 H10        -5.6142   -6.3672    5.6557 H         1 <0>         0.1473
     37 H11        -7.8706   -6.0532    4.7251 H         1 <0>         0.1455
     38 H12        -4.8049    5.3443    3.2606 H         1 <0>         0.0779
     39 H13        -3.9629    3.8787    2.7029 H         1 <0>         0.0631
     40 H14        -5.1795    4.6565    1.6622 H         1 <0>         0.0786
@<TRIPOS>BOND
     1    1    2 1
     2    1   28 1
     3    1   29 1
     4    1   30 1
     5    2   12 1
     6    2    3 1
     7    2   27 1
     8    3    8 ar
     9    3    4 ar
    10    4    5 ar
    11    4   31 1
    12    5    6 ar
    13    5   32 1
    14    6   16 1
    15    6    7 ar
    16    7    8 ar
    17    7   14 1
    18    8    9 1
    19    9   10 2
    20    9   11 am
    21   11   12 am
    22   11   33 1
    23   12   13 2
    24   14   15 2
    25   15   16 1
    26   15   18 1
    27   16   17 1
    28   18   19 1
    29   18   34 1
    30   19   24 ar
    31   19   20 ar
    32   20   21 ar
    33   20   26 1
    34   21   22 ar
    35   21   35 1
    36   22   23 ar
    37   22   36 1
    38   23   24 ar
    39   23   37 1
    40   24   25 1
    41   27   38 1
    42   27   39 1
    43   27   40 1
@<TRIPOS>MOLECULE
CHEMBL212721
   77    80     0     0     0
SMALL
USER_CHARGES

@<TRIPOS>ATOM
      1 C1          0.0502    2.1347   -0.4492 C.3       1 <0>        -0.1114
      2 C2         -0.0184    0.6294   -0.4646 C.ar      1 <0>        -0.0736
      3 C3         -0.0102   -0.0507   -1.6670 C.ar      1 <0>        -0.1159
      4 C4         -0.0726   -1.4319   -1.6818 C.ar      1 <0>        -0.0996
      5 C5         -0.1438   -2.1358   -0.4939 C.ar      1 <0>        -0.1155
      6 C6         -0.1524   -1.4603    0.7111 C.ar      1 <0>        -0.0759
      7 C7         -0.0840   -0.0748    0.7288 C.ar      1 <0>         0.0909
      8 O1         -0.0867    0.5919    1.9134 O.3       1 <0>        -0.2938
      9 C8         -1.2754    0.9563    2.4312 C.2       1 <0>         0.6614
     10 O2         -2.3031    0.6876    1.8413 O.2       1 <0>        -0.5186
     11 N1         -1.3250    1.6191    3.6037 N.am      1 <0>        -0.4851
     12 C9         -2.5537    2.0951    4.0899 C.ar      1 <0>         0.0615
     13 C10        -3.3310    1.2950    4.9140 C.ar      1 <0>        -0.0157
     14 C11        -4.5397    1.7631    5.3924 C.ar      1 <0>        -0.2384
     15 C12        -4.9784    3.0340    5.0503 C.ar      1 <0>         0.1885
     16 C13        -4.2046    3.8379    4.2269 C.ar      1 <0>        -0.2429
     17 C14        -2.9900    3.3731    3.7497 C.ar      1 <0>         0.1929
     18 O3         -2.2275    4.1614    2.9461 O.3       1 <0>        -0.2921
     19 C15        -2.7377    5.4604    2.6386 C.3       1 <0>         0.0232
     20 O4         -6.1685    3.4916    5.5223 O.3       1 <0>        -0.3108
     21 C16        -6.9142    2.6107    6.3649 C.3       1 <0>         0.0234
     22 C17        -0.1593    1.8317    4.3323 C.ar      1 <0>         0.4446
     23 C18         0.3130    0.8571    5.2126 C.ar      1 <0>        -0.2537
     24 C19         1.4752    1.1112    5.9157 C.ar      1 <0>         0.2001
     25 N2          2.1026    2.2639    5.7353 N.ar      1 <0>        -0.5538
     26 C20         1.6309    3.1710    4.8927 C.ar      1 <0>         0.5714
     27 N3          0.5234    2.9631    4.1962 N.ar      1 <0>        -0.5431
     28 N4          2.3159    4.3639    4.7318 N.pl3     1 <0>        -0.6377
     29 C21         3.5487    4.5548    5.3682 C.ar      1 <0>         0.1558
     30 C22         4.4068    3.4795    5.5571 C.ar      1 <0>        -0.0755
     31 C23         5.6223    3.6686    6.1847 C.ar      1 <0>        -0.1167
     32 C24         5.9861    4.9322    6.6265 C.ar      1 <0>         0.0895
     33 C25         5.1294    6.0068    6.4382 C.ar      1 <0>        -0.1777
     34 C26         3.9161    5.8204    5.8056 C.ar      1 <0>        -0.1115
     35 O5          7.1829    5.1174    7.2449 O.3       1 <0>        -0.3289
     36 C27         7.4929    6.4448    7.6739 C.3       1 <0>         0.0250
     37 C28         8.8690    6.4563    8.3426 C.3       1 <0>        -0.0016
     38 N5          9.8985    6.1204    7.3500 N.4       1 <0>        -0.3888
     39 C29         9.9765    7.1886    6.3446 C.3       1 <0>        -0.0541
     40 C30        11.1985    5.9829    8.0202 C.3       1 <0>        -0.0474
     41 C31        -0.2300   -2.2281    2.0055 C.3       1 <0>        -0.1115
     42 H1          1.0929    2.4506   -0.4168 H         1 <0>         0.0743
     43 H2         -0.4211    2.5292   -1.3494 H         1 <0>         0.0725
     44 H3         -0.4716    2.5132    0.4298 H         1 <0>         0.0632
     45 H4          0.0447    0.4969   -2.5963 H         1 <0>         0.1321
     46 H5         -0.0660   -1.9618   -2.6229 H         1 <0>         0.1318
     47 H6         -0.1932   -3.2146   -0.5080 H         1 <0>         0.1330
     48 H7         -2.9914    0.3053    5.1817 H         1 <0>         0.1392
     49 H8         -5.1441    1.1385    6.0335 H         1 <0>         0.1415
     50 H9         -4.5470    4.8269    3.9608 H         1 <0>         0.1457
     51 H10        -2.0336    5.9834    1.9914 H         1 <0>         0.1031
     52 H11        -3.6963    5.3630    2.1290 H         1 <0>         0.0605
     53 H12        -2.8722    6.0255    3.5609 H         1 <0>         0.0586
     54 H13        -7.8402    3.0977    6.6708 H         1 <0>         0.1057
     55 H14        -7.1477    1.6966    5.8188 H         1 <0>         0.0617
     56 H15        -6.3237    2.3658    7.2477 H         1 <0>         0.0602
     57 H16        -0.2179   -0.0745    5.3416 H         1 <0>         0.1526
     58 H17         1.8674    0.3783    6.6051 H         1 <0>         0.1811
     59 H18         1.9417    5.0672    4.1784 H         1 <0>         0.4263
     60 H19         4.1236    2.4956    5.2135 H         1 <0>         0.1479
     61 H20         6.2897    2.8323    6.3320 H         1 <0>         0.1354
     62 H21         5.4134    6.9903    6.7824 H         1 <0>         0.1295
     63 H22         3.2511    6.6581    5.6551 H         1 <0>         0.1328
     64 H23         7.5020    7.1123    6.8123 H         1 <0>         0.0855
     65 H24         6.7399    6.7814    8.3865 H         1 <0>         0.1079
     66 H25         9.0668    7.4479    8.7498 H         1 <0>         0.1484
     67 H26         8.8877    5.7223    9.1482 H         1 <0>         0.1424
     68 H27        10.2351    8.1285    6.8324 H         1 <0>         0.1241
     69 H28        10.7404    6.9393    5.6082 H         1 <0>         0.1268
     70 H29         9.0120    7.2906    5.8474 H         1 <0>         0.1217
     71 H30        11.1666    5.1351    8.7045 H         1 <0>         0.1248
     72 H31        11.9762    5.8187    7.2744 H         1 <0>         0.1255
     73 H32        11.4172    6.8928    8.5790 H         1 <0>         0.1226
     74 H33         0.7773   -2.4603    2.3513 H         1 <0>         0.0773
     75 H34        -0.7416   -1.6250    2.7556 H         1 <0>         0.0586
     76 H35        -0.7820   -3.1544    1.8460 H         1 <0>         0.0748
     77 H36         9.6592    5.2504    6.8985 H         1 <0>         0.4343
@<TRIPOS>BOND
     1    1    2 1
     2    1   42 1
     3    1   43 1
     4    1   44 1
     5    2    7 ar
     6    2    3 ar
     7    3    4 ar
     8    3   45 1
     9    4    5 ar
    10    4   46 1
    11    5    6 ar
    12    5   47 1
    13    6    7 ar
    14    6   41 1
    15    7    8 1
    16    8    9 1
    17    9   10 2
    18    9   11 am
    19   11   12 1
    20   11   22 1
    21   12   17 ar
    22   12   13 ar
    23   13   14 ar
    24   13   48 1
    25   14   15 ar
    26   14   49 1
    27   15   16 ar
    28   15   20 1
    29   16   17 ar
    30   16   50 1
    31   17   18 1
    32   18   19 1
    33   19   51 1
    34   19   52 1
    35   19   53 1
    36   20   21 1
    37   21   54 1
    38   21   55 1
    39   21   56 1
    40   22   27 ar
    41   22   23 ar
    42   23   24 ar
    43   23   57 1
    44   24   25 ar
    45   24   58 1
    46   25   26 ar
    47   26   27 ar
    48   26   28 1
    49   28   29 1
    50   28   59 1
    51   29   34 ar
    52   29   30 ar
    53   30   31 ar
    54   30   60 1
    55   31   32 ar
    56   31   61 1
    57   32   33 ar
    58   32   35 1
    59   33   34 ar
    60   33   62 1
    61   34   63 1
    62   35   36 1
    63   36   37 1
    64   36   64 1
    65   36   65 1
    66   37   38 1
    67   37   66 1
    68   37   67 1
    69   38   39 1
    70   38   40 1
    71   38   77 1
    72   39   68 1
    73   39   69 1
    74   39   70 1
    75   40   71 1
    76   40   72 1
    77   40   73 1
    78   41   74 1
    79   41   75 1
    80   41   76 1
@<TRIPOS>MOLECULE
CHEMBL509101
   50    54     0     0     0
SMALL
USER_CHARGES

@<TRIPOS>ATOM
      1 C1          0.6234    0.6787    1.6092 C.2       1 <0>        -0.2337
      2 C2          1.8025    1.4046    1.4424 C.2       1 <0>         0.0790
      3 C3          2.7539    0.9472    0.5322 C.2       1 <0>        -0.2850
      4 C4          2.4899   -0.2423   -0.1941 C.2       1 <0>         0.5357
      5 O1          3.3061   -0.6631   -0.9956 O.2       1 <0>        -0.5326
      6 N1          1.3349   -0.9054    0.0049 N.am      1 <0>        -0.4430
      7 C5          0.4138   -0.4548    0.8919 C.2       1 <0>         0.1717
      8 C6          1.0809   -2.0791   -0.7162 C.ar      1 <0>         0.0762
      9 C7          1.8265   -3.2237   -0.4664 C.ar      1 <0>        -0.0560
     10 C8          1.5745   -4.3798   -1.1784 C.ar      1 <0>        -0.1414
     11 C9          0.5791   -4.3981   -2.1412 C.ar      1 <0>         0.1215
     12 C10        -0.1652   -3.2575   -2.3922 C.ar      1 <0>        -0.1422
     13 C11         0.0794   -2.1012   -1.6780 C.ar      1 <0>        -0.0727
     14 F1          0.3342   -5.5301   -2.8367 F         1 <0>        -0.1292
     15 C12         4.0094    1.6852    0.3280 C.2       1 <0>         0.5863
     16 O2          4.1612    2.7798    0.8370 O.2       1 <0>        -0.5206
     17 N2          4.9917    1.1491   -0.4230 N.am      1 <0>        -0.6567
     18 C13         6.2443    1.7716   -0.4853 C.ar      1 <0>         0.1866
     19 C14         6.3545    3.1356   -0.2486 C.ar      1 <0>        -0.1372
     20 C15         7.5898    3.7500   -0.3094 C.ar      1 <0>        -0.0659
     21 C16         8.7215    3.0057   -0.6074 C.ar      1 <0>         0.0223
     22 C17         8.6131    1.6410   -0.8445 C.ar      1 <0>         0.1126
     23 C18         7.3774    1.0243   -0.7781 C.ar      1 <0>        -0.1766
     24 F2          9.7154    0.9159   -1.1348 F         1 <0>        -0.1239
     25 O3          9.9374    3.6118   -0.6680 O.3       1 <0>        -0.2347
     26 C19        10.5095    3.7713   -1.8879 C.ar      1 <0>         0.2110
     27 C20         9.8259    3.4333   -3.0493 C.ar      1 <0>        -0.2832
     28 C21        10.4431    3.6111   -4.2750 C.ar      1 <0>         0.1778
     29 N3         11.6650    4.0932   -4.3699 N.ar      1 <0>        -0.5183
     30 C22        12.3684    4.4342   -3.2964 C.ar      1 <0>         0.3161
     31 C23        11.8066    4.2880   -2.0159 C.ar      1 <0>        -0.1773
     32 C24        12.8201    4.7528   -1.0678 C.2       1 <0>        -0.1745
     33 C25        13.8820    5.1397   -1.7917 C.2       1 <0>         0.0508
     34 N4         13.6311    4.9477   -3.1249 N.pl3     1 <0>        -0.5789
     35 H1         14.2501    5.1538   -3.8427 H         1 <0>         0.4228
     36 H2         -0.1224    1.0165    2.3135 H         1 <0>         0.1645
     37 H3          1.9756    2.3073    2.0094 H         1 <0>         0.1577
     38 H4         -0.5036   -1.0077    1.0305 H         1 <0>         0.1751
     39 H5          2.6031   -3.2097    0.2840 H         1 <0>         0.1400
     40 H6          2.1544   -5.2701   -0.9847 H         1 <0>         0.1488
     41 H7         -0.9408   -3.2737   -3.1436 H         1 <0>         0.1492
     42 H8         -0.5047   -1.2134   -1.8704 H         1 <0>         0.1424
     43 H9          4.8310    0.3319   -0.9203 H         1 <0>         0.4282
     44 H10         5.4737    3.7162   -0.0171 H         1 <0>         0.1738
     45 H11         7.6747    4.8108   -0.1252 H         1 <0>         0.1480
     46 H12         7.2929   -0.0373   -0.9579 H         1 <0>         0.1468
     47 H13         8.8233    3.0355   -2.9960 H         1 <0>         0.1386
     48 H14         9.9096    3.3475   -5.1763 H         1 <0>         0.1655
     49 H15        12.7305    4.7796    0.0082 H         1 <0>         0.1531
     50 H16        14.8005    5.5350   -1.3837 H         1 <0>         0.1813
@<TRIPOS>BOND
     1    1    7 2
     2    1    2 1
     3    1   36 1
     4    2    3 2
     5    2   37 1
     6    3    4 1
     7    3   15 1
     8    4    5 2
     9    4    6 am
    10    6    7 1
    11    6    8 1
    12    7   38 1
    13    8   13 ar
    14    8    9 ar
    15    9   10 ar
    16    9   39 1
    17   10   11 ar
    18   10   40 1
    19   11   12 ar
    20   11   14 1
    21   12   13 ar
    22   12   41 1
    23   13   42 1
    24   15   16 2
    25   15   17 am
    26   17   18 1
    27   17   43 1
    28   18   23 ar
    29   18   19 ar
    30   19   20 ar
    31   19   44 1
    32   20   21 ar
    33   20   45 1
    34   21   22 ar
    35   21   25 1
    36   22   23 ar
    37   22   24 1
    38   23   46 1
    39   25   26 1
    40   26   31 ar
    41   26   27 ar
    42   27   28 ar
    43   27   47 1
    44   28   29 ar
    45   28   48 1
    46   29   30 ar
    47   30   34 1
    48   30   31 ar
    49   31   32 1
    50   32   33 2
    51   32   49 1
    52   33   34 1
    53   33   50 1
    54   34   35 1
@<TRIPOS>MOLECULE
CHEMBL215943
   67    71     0     0     0
SMALL
USER_CHARGES

@<TRIPOS>ATOM
      1 C1         -0.0483    1.5024    0.0098 C.3       1 <0>        -0.1268
      2 C2         -0.0195   -0.0043    0.0016 C.ar      1 <0>        -0.0386
      3 C3         -0.0178   -0.6868   -1.1996 C.ar      1 <0>        -0.1235
      4 C4          0.0085   -2.0667   -1.2158 C.ar      1 <0>        -0.0785
      5 C5          0.0330   -2.7811   -0.0158 C.ar      1 <0>        -0.1428
      6 C6          0.0314   -2.0969    1.1984 C.ar      1 <0>        -0.0380
      7 C7          0.0111   -0.7058    1.2063 C.ar      1 <0>        -0.0517
      8 C8          0.0158    0.0300    2.4946 C.ar      1 <0>        -0.0766
      9 C9          0.9293    1.0770    2.6951 C.ar      1 <0>        -0.0509
     10 C10         0.9551    1.7681    3.8654 C.ar      1 <0>        -0.1204
     11 C11         0.0589    1.4368    4.8939 C.ar      1 <0>         0.2183
     12 C12        -0.8687    0.3799    4.7012 C.ar      1 <0>        -0.2144
     13 C13        -0.8839   -0.3174    3.4865 C.ar      1 <0>        -0.0354
     14 C14        -1.7564    0.0690    5.7490 C.ar      1 <0>         0.2451
     15 N1         -1.6869    0.7718    6.8601 N.ar      1 <0>        -0.5576
     16 C15        -0.8035    1.7573    7.0067 C.ar      1 <0>         0.5740
     17 N2          0.0519    2.0930    6.0606 N.ar      1 <0>        -0.5737
     18 N3         -0.7822    2.4573    8.1995 N.pl3     1 <0>        -0.6964
     19 C16        -1.7195    2.1088    9.2701 C.3       1 <0>         0.1398
     20 C17        -1.4872    3.0285   10.4706 C.3       1 <0>         0.0428
     21 N4         -2.4271    2.6791   11.5442 N.3       1 <0>        -0.5321
     22 C18        -3.8120    2.9741   11.1487 C.3       1 <0>         0.0117
     23 C19        -4.7604    2.5406   12.2697 C.3       1 <0>         0.0630
     24 O1         -4.3910    3.2025   13.4824 O.3       1 <0>        -0.3850
     25 C20        -3.0483    2.9369   13.8974 C.3       1 <0>         0.0630
     26 C21        -2.0826    3.3743   12.7929 C.3       1 <0>         0.0183
     27 C22         0.0602   -4.2590   -0.0337 C.2       1 <0>         0.5622
     28 O2          0.0816   -4.8792    1.0117 O.2       1 <0>        -0.5109
     29 N5          0.0613   -4.9189   -1.2088 N.am      1 <0>        -0.6699
     30 C23         0.1847   -6.3117   -1.2285 C.ar      1 <0>         0.1443
     31 C24         0.8894   -6.9337   -2.2514 C.ar      1 <0>        -0.1118
     32 C25         1.0099   -8.3092   -2.2677 C.ar      1 <0>        -0.0994
     33 C26         0.4298   -9.0675   -1.2671 C.ar      1 <0>        -0.0865
     34 C27        -0.2722   -8.4516   -0.2475 C.ar      1 <0>        -0.1641
     35 C28        -0.3920   -7.0758   -0.2225 C.ar      1 <0>        -0.0722
     36 C29        -0.9025   -9.2820    0.8407 C.3       1 <0>         0.5092
     37 F1         -0.6426  -10.6360    0.6040 F         1 <0>        -0.1761
     38 F2         -0.3653   -8.9135    2.0788 F         1 <0>        -0.1725
     39 F3         -2.2849   -9.0671    0.8497 F         1 <0>        -0.1757
     40 H1          0.9721    1.8854   -0.0029 H         1 <0>         0.0793
     41 H2         -0.5817    1.8604   -0.8708 H         1 <0>         0.0726
     42 H3         -0.5562    1.8513    0.9089 H         1 <0>         0.0756
     43 H4         -0.0375   -0.1384   -2.1297 H         1 <0>         0.1346
     44 H5          0.0097   -2.5949   -2.1579 H         1 <0>         0.1271
     45 H6          0.0504   -2.6442    2.1292 H         1 <0>         0.1408
     46 H7          1.6219    1.3369    1.9082 H         1 <0>         0.1341
     47 H8          1.6644    2.5707    4.0039 H         1 <0>         0.1396
     48 H9         -1.5883   -1.1204    3.3272 H         1 <0>         0.1367
     49 H10        -2.4780   -0.7275    5.6434 H         1 <0>         0.1790
     50 H11        -0.1467    3.1789    8.3270 H         1 <0>         0.4144
     51 H12        -2.7417    2.2301    8.9119 H         1 <0>         0.0688
     52 H13        -1.5600    1.0730    9.5698 H         1 <0>         0.0789
     53 H14        -0.4650    2.9072   10.8288 H         1 <0>         0.0845
     54 H15        -1.6467    4.0643   10.1709 H         1 <0>         0.0436
     55 H16        -3.9204    4.0444   10.9738 H         1 <0>         0.0453
     56 H17        -4.0538    2.4291   10.2363 H         1 <0>         0.0911
     57 H18        -5.7831    2.8094   12.0054 H         1 <0>         0.1000
     58 H19        -4.6911    1.4617   12.4082 H         1 <0>         0.0622
     59 H20        -2.8329    3.4922   14.8102 H         1 <0>         0.1003
     60 H21        -2.9293    1.8694   14.0832 H         1 <0>         0.0619
     61 H22        -1.0621    3.1215   13.0806 H         1 <0>         0.0888
     62 H23        -2.1634    4.4511   12.6442 H         1 <0>         0.0455
     63 H24        -0.0236   -4.4277   -2.0409 H         1 <0>         0.4141
     64 H25         1.3423   -6.3421   -3.0333 H         1 <0>         0.1370
     65 H26         1.5573   -8.7933   -3.0629 H         1 <0>         0.1416
     66 H27         0.5252  -10.1432   -1.2823 H         1 <0>         0.1414
     67 H28        -0.9370   -6.5950    0.5764 H         1 <0>         0.1510
@<TRIPOS>BOND
     1    1    2 1
     2    1   40 1
     3    1   41 1
     4    1   42 1
     5    2    7 ar
     6    2    3 ar
     7    3    4 ar
     8    3   43 1
     9    4    5 ar
    10    4   44 1
    11    5    6 ar
    12    5   27 1
    13    6    7 ar
    14    6   45 1
    15    7    8 1
    16    8   13 ar
    17    8    9 ar
    18    9   10 ar
    19    9   46 1
    20   10   11 ar
    21   10   47 1
    22   11   17 ar
    23   11   12 ar
    24   12   13 ar
    25   12   14 ar
    26   13   48 1
    27   14   15 ar
    28   14   49 1
    29   15   16 ar
    30   16   17 ar
    31   16   18 1
    32   18   19 1
    33   18   50 1
    34   19   20 1
    35   19   51 1
    36   19   52 1
    37   20   21 1
    38   20   53 1
    39   20   54 1
    40   21   26 1
    41   21   22 1
    42   22   23 1
    43   22   55 1
    44   22   56 1
    45   23   24 1
    46   23   57 1
    47   23   58 1
    48   24   25 1
    49   25   26 1
    50   25   59 1
    51   25   60 1
    52   26   61 1
    53   26   62 1
    54   27   28 2
    55   27   29 am
    56   29   30 1
    57   29   63 1
    58   30   35 ar
    59   30   31 ar
    60   31   32 ar
    61   31   64 1
    62   32   33 ar
    63   32   65 1
    64   33   34 ar
    65   33   66 1
    66   34   35 ar
    67   34   36 1
    68   35   67 1
    69   36   37 1
    70   36   38 1
    71   36   39 1
@<TRIPOS>MOLECULE
CHEMBL215943__1
   68    72     0     0     0
SMALL
USER_CHARGES

@<TRIPOS>ATOM
      1 C1         -0.0483    1.5024    0.0098 C.3       1 <0>        -0.1276
      2 C2         -0.0195   -0.0043    0.0016 C.ar      1 <0>        -0.0366
      3 C3         -0.0178   -0.6868   -1.1996 C.ar      1 <0>        -0.1221
      4 C4          0.0085   -2.0667   -1.2158 C.ar      1 <0>        -0.0731
      5 C5          0.0330   -2.7811   -0.0158 C.ar      1 <0>        -0.1410
      6 C6          0.0314   -2.0969    1.1984 C.ar      1 <0>        -0.0362
      7 C7          0.0111   -0.7058    1.2063 C.ar      1 <0>        -0.0635
      8 C8          0.0158    0.0300    2.4946 C.ar      1 <0>        -0.0553
      9 C9          0.9293    1.0770    2.6951 C.ar      1 <0>        -0.0467
     10 C10         0.9551    1.7681    3.8654 C.ar      1 <0>        -0.1170
     11 C11         0.0589    1.4368    4.8939 C.ar      1 <0>         0.2111
     12 C12        -0.8687    0.3799    4.7012 C.ar      1 <0>        -0.2001
     13 C13        -0.8839   -0.3174    3.4865 C.ar      1 <0>        -0.0453
     14 C14        -1.7564    0.0690    5.7490 C.ar      1 <0>         0.2479
     15 N1         -1.6869    0.7718    6.8601 N.ar      1 <0>        -0.5684
     16 C15        -0.8035    1.7573    7.0067 C.ar      1 <0>         0.5623
     17 N2          0.0519    2.0930    6.0606 N.ar      1 <0>        -0.5576
     18 N3         -0.7822    2.4573    8.1995 N.pl3     1 <0>        -0.7040
     19 C16        -1.7195    2.1088    9.2701 C.3       1 <0>         0.1188
     20 C17        -1.4872    3.0285   10.4706 C.3       1 <0>        -0.0230
     21 N4         -2.4271    2.6791   11.5442 N.4       1 <0>        -0.3805
     22 C18        -3.8007    2.9572   11.1027 C.3       1 <0>        -0.0511
     23 C19        -4.7779    2.5921   12.2228 C.3       1 <0>         0.0367
     24 O1         -4.4442    3.3332   13.3998 O.3       1 <0>        -0.3561
     25 C20        -3.1064    3.1140   13.8559 C.3       1 <0>         0.0359
     26 C21        -2.1261    3.4800   12.7388 C.3       1 <0>        -0.0426
     27 C22         0.0602   -4.2590   -0.0337 C.2       1 <0>         0.5618
     28 O2          0.0816   -4.8792    1.0117 O.2       1 <0>        -0.5123
     29 N5          0.0613   -4.9189   -1.2088 N.am      1 <0>        -0.6683
     30 C23         0.1847   -6.3117   -1.2285 C.ar      1 <0>         0.1414
     31 C24         0.8894   -6.9337   -2.2514 C.ar      1 <0>        -0.1102
     32 C25         1.0099   -8.3092   -2.2677 C.ar      1 <0>        -0.0984
     33 C26         0.4298   -9.0675   -1.2671 C.ar      1 <0>        -0.0844
     34 C27        -0.2722   -8.4516   -0.2475 C.ar      1 <0>        -0.1647
     35 C28        -0.3920   -7.0758   -0.2225 C.ar      1 <0>        -0.0721
     36 C29        -0.9025   -9.2820    0.8407 C.3       1 <0>         0.5095
     37 F1         -0.6426  -10.6360    0.6040 F         1 <0>        -0.1749
     38 F2         -0.3653   -8.9135    2.0788 F         1 <0>        -0.1737
     39 F3         -2.2849   -9.0671    0.8497 F         1 <0>        -0.1759
     40 H1          0.9721    1.8854   -0.0029 H         1 <0>         0.0806
     41 H2         -0.5817    1.8604   -0.8708 H         1 <0>         0.0754
     42 H3         -0.5562    1.8513    0.9089 H         1 <0>         0.0730
     43 H4         -0.0375   -0.1384   -2.1297 H         1 <0>         0.1371
     44 H5          0.0097   -2.5949   -2.1579 H         1 <0>         0.1298
     45 H6          0.0504   -2.6442    2.1292 H         1 <0>         0.1405
     46 H7          1.6219    1.3369    1.9082 H         1 <0>         0.1398
     47 H8          1.6644    2.5707    4.0039 H         1 <0>         0.1435
     48 H9         -1.5883   -1.1204    3.3272 H         1 <0>         0.1410
     49 H10        -2.4780   -0.7275    5.6434 H         1 <0>         0.1829
     50 H11        -0.1467    3.1789    8.3270 H         1 <0>         0.4205
     51 H12        -2.7417    2.2301    8.9119 H         1 <0>         0.0871
     52 H13        -1.5600    1.0730    9.5698 H         1 <0>         0.0876
     53 H14        -0.4650    2.9072   10.8288 H         1 <0>         0.1408
     54 H15        -1.6467    4.0643   10.1709 H         1 <0>         0.1388
     55 H16        -3.8989    4.0165   10.8654 H         1 <0>         0.1412
     56 H17        -4.0250    2.3635   10.2165 H         1 <0>         0.1457
     57 H18        -5.7940    2.8378   11.9139 H         1 <0>         0.1434
     58 H19        -4.7086    1.5248   12.4329 H         1 <0>         0.0831
     59 H20        -2.9127    3.7373   14.7289 H         1 <0>         0.1435
     60 H21        -2.9799    2.0645   14.1218 H         1 <0>         0.0826
     61 H22        -1.1073    3.2744   13.0672 H         1 <0>         0.1445
     62 H23        -2.2249    4.5391   12.5009 H         1 <0>         0.1407
     63 H24        -0.0236   -4.4277   -2.0409 H         1 <0>         0.4145
     64 H25         1.3423   -6.3421   -3.0333 H         1 <0>         0.1377
     65 H26         1.5573   -8.7933   -3.0629 H         1 <0>         0.1430
     66 H27         0.5252  -10.1432   -1.2823 H         1 <0>         0.1425
     67 H28        -0.9370   -6.5950    0.5764 H         1 <0>         0.1500
     68 H29        -2.3364    1.6987   11.7648 H         1 <0>         0.4260
@<TRIPOS>BOND
     1    1    2 1
     2    1   40 1
     3    1   41 1
     4    1   42 1
     5    2    7 ar
     6    2    3 ar
     7    3    4 ar
     8    3   43 1
     9    4    5 ar
    10    4   44 1
    11    5    6 ar
    12    5   27 1
    13    6    7 ar
    14    6   45 1
    15    7    8 1
    16    8   13 ar
    17    8    9 ar
    18    9   10 ar
    19    9   46 1
    20   10   11 ar
    21   10   47 1
    22   11   17 ar
    23   11   12 ar
    24   12   13 ar
    25   12   14 ar
    26   13   48 1
    27   14   15 ar
    28   14   49 1
    29   15   16 ar
    30   16   17 ar
    31   16   18 1
    32   18   19 1
    33   18   50 1
    34   19   20 1
    35   19   51 1
    36   19   52 1
    37   20   21 1
    38   20   53 1
    39   20   54 1
    40   21   26 1
    41   21   22 1
    42   21   68 1
    43   22   23 1
    44   22   55 1
    45   22   56 1
    46   23   24 1
    47   23   57 1
    48   23   58 1
    49   24   25 1
    50   25   26 1
    51   25   59 1
    52   25   60 1
    53   26   61 1
    54   26   62 1
    55   27   28 2
    56   27   29 am
    57   29   30 1
    58   29   63 1
    59   30   35 ar
    60   30   31 ar
    61   31   32 ar
    62   31   64 1
    63   32   33 ar
    64   32   65 1
    65   33   34 ar
    66   33   66 1
    67   34   35 ar
    68   34   36 1
    69   35   67 1
    70   36   37 1
    71   36   38 1
    72   36   39 1
@<TRIPOS>MOLECULE
CHEMBL576985
   62    67     0     0     0
SMALL
USER_CHARGES

@<TRIPOS>ATOM
      1 C1         -0.8779    1.4212    0.0720 C.3       1 <0>        -0.1275
      2 C2         -0.6180   -0.0631    0.0466 C.ar      1 <0>        -0.0371
      3 C3         -0.6608   -0.7482   -1.1616 C.ar      1 <0>        -0.1242
      4 C4         -0.4306   -2.0913   -1.2207 C.ar      1 <0>        -0.0762
      5 C5         -0.1441   -2.8043   -0.0490 C.ar      1 <0>        -0.1395
      6 C6         -0.0961   -2.1214    1.1911 C.ar      1 <0>         0.0308
      7 C7         -0.3331   -0.7297    1.2275 C.ar      1 <0>        -0.0535
      8 C8         -0.2832    0.0065    2.5114 C.ar      1 <0>        -0.0657
      9 C9          0.9325    0.1114    3.2080 C.ar      1 <0>        -0.0506
     10 C10         1.0059    0.7809    4.3884 C.ar      1 <0>        -0.1185
     11 C11        -0.1441    1.3798    4.9269 C.ar      1 <0>         0.2165
     12 C12        -1.3775    1.2804    4.2312 C.ar      1 <0>        -0.2135
     13 C13        -1.4340    0.5912    3.0135 C.ar      1 <0>        -0.0389
     14 C14        -2.5146    1.8911    4.7942 C.ar      1 <0>         0.2428
     15 N1         -2.3838    2.5265    5.9397 N.ar      1 <0>        -0.5581
     16 C15        -1.2106    2.6000    6.5654 C.ar      1 <0>         0.5686
     17 N2         -0.1126    2.0480    6.0863 N.ar      1 <0>        -0.5737
     18 N3         -1.1405    3.2832    7.7660 N.pl3     1 <0>        -0.7007
     19 C16        -2.3421    3.9078    8.3246 C.3       1 <0>         0.1039
     20 C17         0.1939   -2.8612    2.3501 C.ar      1 <0>        -0.2093
     21 C18         0.4166   -4.2002    2.2374 C.ar      1 <0>         0.1330
     22 N4          0.3680   -4.8235    1.0681 N.ar      1 <0>        -0.5394
     23 C19         0.1015   -4.1957   -0.0619 C.ar      1 <0>         0.4283
     24 N5          0.0627   -4.8979   -1.2552 N.pl3     1 <0>        -0.6538
     25 C20         0.1877   -6.2898   -1.2514 C.ar      1 <0>         0.1983
     26 C21        -0.3943   -7.0347   -0.2324 C.ar      1 <0>        -0.1267
     27 C22        -0.2693   -8.4115   -0.2317 C.ar      1 <0>        -0.0422
     28 C23         0.4304   -9.0404   -1.2380 C.ar      1 <0>        -0.1478
     29 C24         1.0180   -8.3097   -2.2638 C.ar      1 <0>         0.1631
     30 C25         0.8867   -6.9235   -2.2668 C.ar      1 <0>        -0.1710
     31 N6          1.6655   -9.1654   -3.1558 N.am      1 <0>        -0.6605
     32 C26         1.5538  -10.4550   -2.7958 C.2       1 <0>         0.5358
     33 O1          2.0161  -11.4097   -3.3839 O.2       1 <0>        -0.4958
     34 C27         0.7422  -10.4927   -1.5184 C.3       1 <0>        -0.0516
     35 C28        -0.5484  -11.2876   -1.7266 C.3       1 <0>        -0.1266
     36 C29         1.5656  -11.0941   -0.3777 C.3       1 <0>        -0.1267
     37 H1          0.0617    1.9569   -0.0632 H         1 <0>         0.0768
     38 H2         -1.5648    1.6836   -0.7326 H         1 <0>         0.0718
     39 H3         -1.3185    1.6965    1.0302 H         1 <0>         0.0748
     40 H4         -0.8808   -0.2074   -2.0702 H         1 <0>         0.1302
     41 H5         -0.4694   -2.6050   -2.1700 H         1 <0>         0.1250
     42 H6          1.8211   -0.3469    2.7998 H         1 <0>         0.1323
     43 H7          1.9479    0.8518    4.9119 H         1 <0>         0.1391
     44 H8         -2.3661    0.5130    2.4735 H         1 <0>         0.1355
     45 H9         -3.4722    1.8396    4.2974 H         1 <0>         0.1779
     46 H10        -0.2957    3.3487    8.2381 H         1 <0>         0.4167
     47 H11        -2.0933    4.3959    9.2669 H         1 <0>         0.0773
     48 H12        -2.7268    4.6477    7.6227 H         1 <0>         0.0602
     49 H13        -3.1004    3.1446    8.4998 H         1 <0>         0.0603
     50 H14         0.2398   -2.3762    3.3140 H         1 <0>         0.1356
     51 H15         0.6397   -4.7711    3.1266 H         1 <0>         0.1553
     52 H16        -0.0511   -4.4235   -2.0936 H         1 <0>         0.4183
     53 H17        -0.9419   -6.5398    0.5560 H         1 <0>         0.1391
     54 H18        -0.7200   -8.9941    0.5582 H         1 <0>         0.1315
     55 H19         1.3338   -6.3411   -3.0588 H         1 <0>         0.1276
     56 H20         2.1414   -8.8638   -3.9454 H         1 <0>         0.4126
     57 H21        -1.0976  -10.8738   -2.5724 H         1 <0>         0.0601
     58 H22        -0.3043  -12.3308   -1.9273 H         1 <0>         0.0708
     59 H23        -1.1629  -11.2245   -0.8285 H         1 <0>         0.0739
     60 H24         1.0015  -11.0264    0.5525 H         1 <0>         0.0741
     61 H25         1.7806  -12.1399   -0.5969 H         1 <0>         0.0706
     62 H26         2.5013  -10.5444   -0.2760 H         1 <0>         0.0604
@<TRIPOS>BOND
     1    1    2 1
     2    1   37 1
     3    1   38 1
     4    1   39 1
     5    2    7 ar
     6    2    3 ar
     7    3    4 ar
     8    3   40 1
     9    4    5 ar
    10    4   41 1
    11    5   23 ar
    12    5    6 ar
    13    6    7 ar
    14    6   20 ar
    15    7    8 1
    16    8   13 ar
    17    8    9 ar
    18    9   10 ar
    19    9   42 1
    20   10   11 ar
    21   10   43 1
    22   11   17 ar
    23   11   12 ar
    24   12   13 ar
    25   12   14 ar
    26   13   44 1
    27   14   15 ar
    28   14   45 1
    29   15   16 ar
    30   16   17 ar
    31   16   18 1
    32   18   19 1
    33   18   46 1
    34   19   47 1
    35   19   48 1
    36   19   49 1
    37   20   21 ar
    38   20   50 1
    39   21   22 ar
    40   21   51 1
    41   22   23 ar
    42   23   24 1
    43   24   25 1
    44   24   52 1
    45   25   30 ar
    46   25   26 ar
    47   26   27 ar
    48   26   53 1
    49   27   28 ar
    50   27   54 1
    51   28   34 1
    52   28   29 ar
    53   29   30 ar
    54   29   31 1
    55   30   55 1
    56   31   32 am
    57   31   56 1
    58   32   33 2
    59   32   34 1
    60   34   35 1
    61   34   36 1
    62   35   57 1
    63   35   58 1
    64   35   59 1
    65   36   60 1
    66   36   61 1
    67   36   62 1
@<TRIPOS>MOLECULE
CHEMBL576985__1
   63    68     0     0     0
SMALL
USER_CHARGES

@<TRIPOS>ATOM
      1 C1         -1.4788    1.3608   -0.2411 C.3       1 <0>        -0.1416
      2 C2         -1.2037   -0.1204   -0.2039 C.ar      1 <0>         0.0042
      3 C3         -0.7134   -0.7575   -1.3374 C.ar      1 <0>        -0.0941
      4 C4         -0.4534   -2.0965   -1.3385 C.ar      1 <0>        -0.0656
      5 C5         -0.6803   -2.8542   -0.1819 C.ar      1 <0>        -0.1289
      6 C6         -1.1794   -2.2205    0.9825 C.ar      1 <0>         0.0410
      7 C7         -1.4367   -0.8321    0.9619 C.ar      1 <0>        -0.0309
      8 C8         -1.9539   -0.1470    2.1685 C.ar      1 <0>        -0.1044
      9 C9         -1.1540   -0.0657    3.3207 C.ar      1 <0>        -0.0582
     10 C10        -1.6045    0.5569    4.4416 C.ar      1 <0>        -0.1110
     11 C11        -2.8859    1.1305    4.4575 C.ar      1 <0>         0.2266
     12 C12        -3.7023    1.0546    3.2987 C.ar      1 <0>        -0.2224
     13 C13        -3.2203    0.4138    2.1507 C.ar      1 <0>        -0.0201
     14 C14        -4.9827    1.6389    3.3427 C.ar      1 <0>         0.2487
     15 N1         -5.3657    2.2291    4.4554 N.ar      1 <0>        -0.5530
     16 C15        -4.5734    2.2817    5.5243 C.ar      1 <0>         0.5782
     17 N2         -3.3653    1.7525    5.5415 N.ar      1 <0>        -0.5758
     18 N3         -5.0357    2.9172    6.6625 N.pl3     1 <0>        -0.6927
     19 C16        -6.3729    3.5155    6.6754 C.3       1 <0>         0.0991
     20 C17        -1.3971   -3.0045    2.1282 C.ar      1 <0>        -0.1181
     21 C18        -1.1212   -4.3374    2.0756 C.ar      1 <0>         0.0820
     22 N4         -0.6540   -4.9141    0.9770 N.ar      1 <0>        -0.5116
     23 C19        -0.4252   -4.2432   -0.1364 C.ar      1 <0>         0.4984
     24 N5          0.0627   -4.8979   -1.2552 N.pl3     1 <0>        -0.6253
     25 C20         0.1877   -6.2898   -1.2514 C.ar      1 <0>         0.1330
     26 C21        -0.8144   -7.0737   -0.6918 C.ar      1 <0>        -0.1929
     27 C22        -0.6881   -8.4504   -0.6899 C.ar      1 <0>        -0.0212
     28 C23         0.4281   -9.0406   -1.2408 C.ar      1 <0>        -0.1214
     29 C24         1.4387   -8.2707   -1.8041 C.ar      1 <0>         0.1928
     30 C25         1.3079   -6.8845   -1.8107 C.ar      1 <0>        -0.1434
     31 N6          2.4558   -9.0921   -2.2921 N.am      1 <0>        -0.6607
     32 C26         2.1968  -10.3954   -2.0931 C.2       1 <0>         0.5350
     33 O1          2.9032  -11.3274   -2.4145 O.2       1 <0>        -0.4678
     34 C27         0.8575  -10.4820   -1.3927 C.3       1 <0>        -0.0562
     35 C28        -0.1474  -11.2530   -2.2511 C.3       1 <0>        -0.1317
     36 C29         1.0114  -11.1428   -0.0214 C.3       1 <0>        -0.1311
     37 H1         -0.5821    1.9045    0.0564 H         1 <0>         0.0931
     38 H2         -1.7618    1.6526   -1.2525 H         1 <0>         0.0848
     39 H3         -2.2914    1.5968    0.4460 H         1 <0>         0.0855
     40 H4         -0.5353   -0.1820   -2.2338 H         1 <0>         0.1525
     41 H5         -0.0734   -2.5724   -2.2304 H         1 <0>         0.1423
     42 H6         -0.1673   -0.5047    3.3157 H         1 <0>         0.1325
     43 H7         -0.9775    0.6101    5.3194 H         1 <0>         0.1432
     44 H8         -3.8311    0.3540    1.2620 H         1 <0>         0.1380
     45 H9         -5.6356    1.6040    2.4831 H         1 <0>         0.1806
     46 H10        -4.4745    2.9667    7.4521 H         1 <0>         0.4196
     47 H11        -6.5596    3.9668    7.6499 H         1 <0>         0.0820
     48 H12        -6.4358    4.2813    5.9023 H         1 <0>         0.0639
     49 H13        -7.1182    2.7435    6.4837 H         1 <0>         0.0637
     50 H14        -1.7765   -2.5578    3.0353 H         1 <0>         0.1775
     51 H15        -1.2877   -4.9421    2.9548 H         1 <0>         0.2015
     52 H16         0.3178   -4.3902   -2.0415 H         1 <0>         0.4443
     53 H17        -1.6884   -6.6090   -0.2597 H         1 <0>         0.1370
     54 H18        -1.4644   -9.0632   -0.2562 H         1 <0>         0.1501
     55 H19         2.0822   -6.2717   -2.2481 H         1 <0>         0.1452
     56 H20         3.2576   -8.7602   -2.7255 H         1 <0>         0.4206
     57 H21        -0.2079  -10.7958   -3.2387 H         1 <0>         0.0636
     58 H22         0.1781  -12.2886   -2.3495 H         1 <0>         0.0800
     59 H23        -1.1282  -11.2240   -1.7765 H         1 <0>         0.0781
     60 H24         0.0581  -11.1112    0.5062 H         1 <0>         0.0778
     61 H25         1.3209  -12.1799   -0.1506 H         1 <0>         0.0802
     62 H26         1.7648  -10.6081    0.5570 H         1 <0>         0.0627
     63 H27        -0.4731   -5.8670    0.9921 H         1 <0>         0.4405
@<TRIPOS>BOND
     1    1    2 1
     2    1   37 1
     3    1   38 1
     4    1   39 1
     5    2    7 ar
     6    2    3 ar
     7    3    4 ar
     8    3   40 1
     9    4    5 ar
    10    4   41 1
    11    5   23 ar
    12    5    6 ar
    13    6    7 ar
    14    6   20 ar
    15    7    8 1
    16    8   13 ar
    17    8    9 ar
    18    9   10 ar
    19    9   42 1
    20   10   11 ar
    21   10   43 1
    22   11   17 ar
    23   11   12 ar
    24   12   13 ar
    25   12   14 ar
    26   13   44 1
    27   14   15 ar
    28   14   45 1
    29   15   16 ar
    30   16   17 ar
    31   16   18 1
    32   18   19 1
    33   18   46 1
    34   19   47 1
    35   19   48 1
    36   19   49 1
    37   20   21 ar
    38   20   50 1
    39   21   22 ar
    40   21   51 1
    41   22   23 ar
    42   22   63 1
    43   23   24 1
    44   24   25 1
    45   24   52 1
    46   25   30 ar
    47   25   26 ar
    48   26   27 ar
    49   26   53 1
    50   27   28 ar
    51   27   54 1
    52   28   34 1
    53   28   29 ar
    54   29   30 ar
    55   29   31 1
    56   30   55 1
    57   31   32 am
    58   31   56 1
    59   32   33 2
    60   32   34 1
    61   34   35 1
    62   34   36 1
    63   35   57 1
    64   35   58 1
    65   35   59 1
    66   36   60 1
    67   36   61 1
    68   36   62 1
@<TRIPOS>MOLECULE
CHEMBL383275
   58    61     0     0     0
SMALL
USER_CHARGES

@<TRIPOS>ATOM
      1 C1          2.5096    2.8809    1.0199 C.3       1 <0>        -0.1101
      2 C2          3.5680    1.8208    1.1837 C.ar      1 <0>        -0.1288
      3 C3          4.6882    1.8328    0.3750 C.ar      1 <0>        -0.0805
      4 C4          5.6605    0.8623    0.5226 C.ar      1 <0>        -0.1635
      5 C5          5.5147   -0.1281    1.4842 C.ar      1 <0>         0.1232
      6 C6          4.3925   -0.1435    2.2973 C.ar      1 <0>        -0.1571
      7 C7          3.4196    0.8356    2.1513 C.ar      1 <0>         0.1810
      8 N1          2.2881    0.8270    2.9746 N.am      1 <0>        -0.6727
      9 C8          2.3250    0.1946    4.1642 C.2       1 <0>         0.7174
     10 O1          3.3647   -0.2957    4.5599 O.2       1 <0>        -0.5493
     11 N2          1.2093    0.1058    4.9151 N.am      1 <0>        -0.5797
     12 C9         -0.0135    0.7942    4.4943 C.3       1 <0>         0.0785
     13 C10         1.2189   -0.6393    6.0894 C.ar      1 <0>         0.4441
     14 C11         0.9819   -2.0091    6.0574 C.ar      1 <0>        -0.2636
     15 C12         1.0022   -2.7101    7.2602 C.ar      1 <0>         0.4423
     16 N3          1.2463   -2.0480    8.3897 N.ar      1 <0>        -0.5601
     17 C13         1.4661   -0.7493    8.3776 C.ar      1 <0>         0.3544
     18 N4          1.4605   -0.0524    7.2594 N.ar      1 <0>        -0.5563
     19 N5          0.7714   -4.0774    7.2818 N.pl3     1 <0>        -0.6444
     20 C14         0.6830   -4.7534    8.5053 C.ar      1 <0>         0.0947
     21 C15         0.1556   -4.1104    9.6174 C.ar      1 <0>        -0.0605
     22 C16         0.0681   -4.7770   10.8234 C.ar      1 <0>        -0.1789
     23 C17         0.5075   -6.0905   10.9243 C.ar      1 <0>         0.2071
     24 C18         1.0350   -6.7335    9.8121 C.ar      1 <0>        -0.1787
     25 C19         1.1176   -6.0686    8.6048 C.ar      1 <0>        -0.0952
     26 N6          0.4192   -6.7660   12.1468 N.pl3     1 <0>        -0.6342
     27 C20         0.9767   -8.1184   12.3069 C.3       1 <0>         0.0872
     28 C21         1.8648   -8.1305   13.5564 C.3       1 <0>         0.0453
     29 O2          1.1248   -7.6134   14.6649 O.3       1 <0>        -0.3795
     30 C22         0.7138   -6.2528   14.5107 C.3       1 <0>         0.0450
     31 C23        -0.2283   -6.1424   13.3118 C.3       1 <0>         0.0867
     32 O3          6.4716   -1.0823    1.6280 O.3       1 <0>        -0.4977
     33 H1          2.7444    3.7309    1.6607 H         1 <0>         0.0734
     34 H2          2.4798    3.2070   -0.0197 H         1 <0>         0.0744
     35 H3          1.5390    2.4717    1.3003 H         1 <0>         0.0570
     36 H4          4.8039    2.6021   -0.3741 H         1 <0>         0.1324
     37 H5          6.5349    0.8740   -0.1112 H         1 <0>         0.1300
     38 H6          4.2774   -0.9133    3.0460 H         1 <0>         0.1579
     39 H7          1.4772    1.2762    2.6890 H         1 <0>         0.4094
     40 H8         -0.6050    0.1310    3.8631 H         1 <0>         0.0700
     41 H9         -0.5945    1.0728    5.3735 H         1 <0>         0.0856
     42 H10         0.2491    1.6910    3.9332 H         1 <0>         0.0763
     43 H11         0.7867   -2.5160    5.1239 H         1 <0>         0.1444
     44 H12         1.6606   -0.2417    9.3108 H         1 <0>         0.2030
     45 H13         0.6711   -4.5655    6.4496 H         1 <0>         0.4196
     46 H14        -0.1858   -3.0888    9.5390 H         1 <0>         0.1356
     47 H15        -0.3418   -4.2767   11.6884 H         1 <0>         0.1251
     48 H16         1.3771   -7.7549    9.8906 H         1 <0>         0.1255
     49 H17         1.5240   -6.5700    7.7389 H         1 <0>         0.1237
     50 H18         0.1664   -8.8378   12.4255 H         1 <0>         0.0703
     51 H19         1.5719   -8.3762   11.4310 H         1 <0>         0.0920
     52 H20         2.1765   -9.1525   13.7716 H         1 <0>         0.1049
     53 H21         2.7439   -7.5096   13.3841 H         1 <0>         0.0559
     54 H22         0.1974   -5.9241   15.4126 H         1 <0>         0.1053
     55 H23         1.5888   -5.6251   14.3420 H         1 <0>         0.0559
     56 H24        -0.4307   -5.0923   13.1009 H         1 <0>         0.0932
     57 H25        -1.1620   -6.6594   13.5333 H         1 <0>         0.0702
     58 H26         7.2067   -0.8193    2.1985 H         1 <0>         0.3930
@<TRIPOS>BOND
     1    1    2 1
     2    1   33 1
     3    1   34 1
     4    1   35 1
     5    2    7 ar
     6    2    3 ar
     7    3    4 ar
     8    3   36 1
     9    4    5 ar
    10    4   37 1
    11    5    6 ar
    12    5   32 1
    13    6    7 ar
    14    6   38 1
    15    7    8 1
    16    8    9 am
    17    8   39 1
    18    9   10 2
    19    9   11 am
    20   11   12 1
    21   11   13 1
    22   12   40 1
    23   12   41 1
    24   12   42 1
    25   13   18 ar
    26   13   14 ar
    27   14   15 ar
    28   14   43 1
    29   15   16 ar
    30   15   19 1
    31   16   17 ar
    32   17   18 ar
    33   17   44 1
    34   19   20 1
    35   19   45 1
    36   20   25 ar
    37   20   21 ar
    38   21   22 ar
    39   21   46 1
    40   22   23 ar
    41   22   47 1
    42   23   24 ar
    43   23   26 1
    44   24   25 ar
    45   24   48 1
    46   25   49 1
    47   26   31 1
    48   26   27 1
    49   27   28 1
    50   27   50 1
    51   27   51 1
    52   28   29 1
    53   28   52 1
    54   28   53 1
    55   29   30 1
    56   30   31 1
    57   30   54 1
    58   30   55 1
    59   31   56 1
    60   31   57 1
    61   32   58 1
@<TRIPOS>MOLECULE
CHEMBL206873
   67    69     0     0     0
SMALL
USER_CHARGES

@<TRIPOS>ATOM
      1 C1          3.3984   -2.5537    5.4025 C.3       1 <0>        -0.1870
      2 C2          3.2426   -1.4452    4.3596 C.3       1 <0>        -0.0178
      3 N1          2.0619   -1.7169    3.5289 N.4       1 <0>        -0.3872
      4 C3          0.8508   -1.6300    4.3558 C.3       1 <0>        -0.0150
      5 C4         -0.3642   -2.0506    3.5266 C.3       1 <0>        -0.1885
      6 C5          1.9871   -0.7276    2.4456 C.3       1 <0>        -0.0054
      7 C6          3.1872   -0.9013    1.5125 C.3       1 <0>         0.0265
      8 O1          3.1090   -2.1743    0.8680 O.3       1 <0>        -0.3286
      9 C7          4.1067   -2.4887   -0.0010 C.ar      1 <0>         0.0915
     10 C8          5.1411   -1.5915   -0.2226 C.ar      1 <0>        -0.1795
     11 C9          6.1546   -1.9098   -1.1049 C.ar      1 <0>        -0.0731
     12 C10         6.1380   -3.1286   -1.7703 C.ar      1 <0>         0.1453
     13 C11         5.1021   -4.0262   -1.5478 C.ar      1 <0>        -0.1109
     14 C12         4.0923   -3.7086   -0.6609 C.ar      1 <0>        -0.1185
     15 N2          7.1650   -3.4520   -2.6654 N.pl3     1 <0>        -0.6524
     16 C13         8.4585   -3.0138   -2.4243 C.ar      1 <0>         0.4484
     17 C14         9.4626   -3.2228   -3.3664 C.ar      1 <0>        -0.3202
     18 C15        10.7428   -2.7645   -3.0771 C.ar      1 <0>         0.4541
     19 N3         10.9616   -2.1466   -1.9182 N.ar      1 <0>        -0.5376
     20 C16         9.9853   -1.9677   -1.0521 C.ar      1 <0>         0.3665
     21 N4          8.7577   -2.3821   -1.2910 N.ar      1 <0>        -0.5887
     22 N5         11.7801   -2.9491   -3.9850 N.am      1 <0>        -0.5537
     23 C17        11.5066   -3.5315   -5.3011 C.3       1 <0>         0.0610
     24 C18        13.0368   -2.5922   -3.6539 C.2       1 <0>         0.6971
     25 O2         13.2638   -2.1088   -2.5617 O.2       1 <0>        -0.4971
     26 N6         14.0421   -2.7711   -4.5337 N.am      1 <0>        -0.6738
     27 C19        15.3603   -2.4922   -4.1561 C.ar      1 <0>         0.1731
     28 C20        15.6152   -1.5612   -3.1588 C.ar      1 <0>        -0.1558
     29 C21        16.9221   -1.2876   -2.7875 C.ar      1 <0>         0.1215
     30 C22        17.9725   -1.9447   -3.4133 C.ar      1 <0>        -0.1566
     31 C23        17.7168   -2.8712   -4.4059 C.ar      1 <0>        -0.0824
     32 C24        16.4150   -3.1508   -4.7748 C.ar      1 <0>        -0.1250
     33 C25        16.1395   -4.1668   -5.8531 C.3       1 <0>        -0.1146
     34 O3         17.1751   -0.3762   -1.8117 O.3       1 <0>        -0.4968
     35 H1          3.4264   -3.5218    4.9024 H         1 <0>         0.0803
     36 H2          4.3253   -2.4039    5.9562 H         1 <0>         0.1066
     37 H3          2.5547   -2.5252    6.0920 H         1 <0>         0.0812
     38 H4          3.1193   -0.4867    4.8638 H         1 <0>         0.1311
     39 H5          4.1309   -1.4123    3.7288 H         1 <0>         0.1291
     40 H6          0.9501   -2.2917    5.2163 H         1 <0>         0.1329
     41 H7          0.7185   -0.6042    4.6997 H         1 <0>         0.1298
     42 H8         -0.5196   -1.3338    2.7203 H         1 <0>         0.0803
     43 H9         -0.1910   -3.0404    3.1044 H         1 <0>         0.0809
     44 H10        -1.2478   -2.0772    4.1643 H         1 <0>         0.1062
     45 H11         1.0651   -0.8739    1.8828 H         1 <0>         0.1434
     46 H12         1.9987    0.2767    2.8692 H         1 <0>         0.1485
     47 H13         3.1800   -0.1123    0.7605 H         1 <0>         0.1081
     48 H14         4.1089   -0.8432    2.0914 H         1 <0>         0.0858
     49 H15         5.1536   -0.6435    0.2947 H         1 <0>         0.1288
     50 H16         6.9597   -1.2110   -1.2777 H         1 <0>         0.1431
     51 H17         5.0885   -4.9743   -2.0649 H         1 <0>         0.1366
     52 H18         3.2891   -4.4086   -0.4842 H         1 <0>         0.1353
     53 H19         6.9718   -3.9826   -3.4541 H         1 <0>         0.4231
     54 H20         9.2523   -3.7281   -4.2975 H         1 <0>         0.1479
     55 H21        10.1964   -1.4629   -0.1210 H         1 <0>         0.2019
     56 H22        11.2724   -2.7363   -6.0088 H         1 <0>         0.0789
     57 H23        12.3844   -4.0779   -5.6461 H         1 <0>         0.0849
     58 H24        10.6597   -4.2137   -5.2277 H         1 <0>         0.0929
     59 H25        13.8517   -3.0932   -5.4286 H         1 <0>         0.4087
     60 H26        14.7967   -1.0506   -2.6732 H         1 <0>         0.1611
     61 H27        18.9909   -1.7312   -3.1242 H         1 <0>         0.1312
     62 H28        18.5359   -3.3808   -4.8915 H         1 <0>         0.1333
     63 H29        16.1193   -3.6705   -6.8234 H         1 <0>         0.0732
     64 H30        16.9240   -4.9235   -5.8483 H         1 <0>         0.0755
     65 H31        15.1759   -4.6413   -5.6677 H         1 <0>         0.0591
     66 H32        17.2096   -0.7524   -0.9215 H         1 <0>         0.3929
     67 H33         2.1340   -2.6428    3.1344 H         1 <0>         0.4292
@<TRIPOS>BOND
     1    1    2 1
     2    1   35 1
     3    1   36 1
     4    1   37 1
     5    2    3 1
     6    2   38 1
     7    2   39 1
     8    3    4 1
     9    3    6 1
    10    3   67 1
    11    4    5 1
    12    4   40 1
    13    4   41 1
    14    5   42 1
    15    5   43 1
    16    5   44 1
    17    6    7 1
    18    6   45 1
    19    6   46 1
    20    7    8 1
    21    7   47 1
    22    7   48 1
    23    8    9 1
    24    9   14 ar
    25    9   10 ar
    26   10   11 ar
    27   10   49 1
    28   11   12 ar
    29   11   50 1
    30   12   13 ar
    31   12   15 1
    32   13   14 ar
    33   13   51 1
    34   14   52 1
    35   15   16 1
    36   15   53 1
    37   16   21 ar
    38   16   17 ar
    39   17   18 ar
    40   17   54 1
    41   18   19 ar
    42   18   22 1
    43   19   20 ar
    44   20   21 ar
    45   20   55 1
    46   22   23 1
    47   22   24 am
    48   23   56 1
    49   23   57 1
    50   23   58 1
    51   24   25 2
    52   24   26 am
    53   26   27 1
    54   26   59 1
    55   27   32 ar
    56   27   28 ar
    57   28   29 ar
    58   28   60 1
    59   29   30 ar
    60   29   34 1
    61   30   31 ar
    62   30   61 1
    63   31   32 ar
    64   31   62 1
    65   32   33 1
    66   33   63 1
    67   33   64 1
    68   33   65 1
    69   34   66 1
@<TRIPOS>MOLECULE
CHEMBL165399
   19    19     0     0     0
SMALL
USER_CHARGES

@<TRIPOS>ATOM
      1 C1         -0.0168    1.3900    0.0097 C.ar      1 <0>        -0.0158
      2 C2          1.1849    2.0968    0.0020 C.ar      1 <0>        -0.1953
      3 C3          2.3996    1.4038   -0.0133 C.ar      1 <0>         0.0013
      4 C4          2.4105    0.0233   -0.0213 C.ar      1 <0>        -0.7006
      5 C5          1.2244   -0.6833   -0.0142 C.ar      1 <0>         0.0013
      6 C6          0.0021   -0.0041    0.0020 C.ar      1 <0>        -0.1953
      7 C7         -1.2646   -0.7610    0.0105 C.2       1 <0>         0.5329
      8 O1         -2.3326   -0.1655    0.0243 O.co2     1 <0>        -0.7034
      9 O2         -1.2462   -1.9837    0.0038 O.co2     1 <0>        -0.7029
     10 S1          3.9458   -0.8412   -0.0412 S.o2      1 <0>         2.7144
     11 O3          3.7156   -2.0949   -0.7421 O.2       1 <0>        -1.0790
     12 O4          4.8985    0.0060   -0.7417 O.2       1 <0>        -1.0790
     13 O5          4.3274   -1.0563    1.3460 O.3       1 <0>        -1.0824
     14 C8          1.1753    3.5723    0.0095 C.2       1 <0>         0.5329
     15 O6          0.1123    4.1767    0.0225 O.co2     1 <0>        -0.7034
     16 O7          2.2302    4.1907    0.0028 O.co2     1 <0>        -0.7029
     17 H1         -0.9578    1.9198    0.0260 H         1 <0>         0.1256
     18 H2          3.3313    1.9500   -0.0193 H         1 <0>         0.1259
     19 H3          1.2406   -1.7632   -0.0209 H         1 <0>         0.1259
@<TRIPOS>BOND
     1    1    6 ar
     2    1    2 ar
     3    1   17 1
     4    2    3 ar
     5    2   14 1
     6    3    4 ar
     7    3   18 1
     8    4    5 ar
     9    4   10 1
    10    5    6 ar
    11    5   19 1
    12    6    7 1
    13    7    8 2
    14    7    9 1
    15   10   11 2
    16   10   12 2
    17   10   13 1
    18   14   15 2
    19   14   16 1
@<TRIPOS>MOLECULE
CHEMBL189649
   48    51     0     0     0
SMALL
USER_CHARGES

@<TRIPOS>ATOM
      1 C1         -1.3933    1.1611    0.2249 C.3       1 <0>        -0.1166
      2 C2         -0.6748   -0.1576    0.0999 C.ar      1 <0>        -0.0850
      3 C3         -0.6790   -0.8359   -1.1037 C.ar      1 <0>        -0.1055
      4 C4         -0.0203   -2.0459   -1.2199 C.ar      1 <0>        -0.1067
      5 C5          0.6450   -2.5819   -0.1323 C.ar      1 <0>        -0.1063
      6 C6          0.6529   -1.9092    1.0746 C.ar      1 <0>        -0.0242
      7 C7         -0.0034   -0.6894    1.1925 C.ar      1 <0>         0.1456
      8 N1          0.0080   -0.0020    2.4109 N.am      1 <0>        -0.6731
      9 C8         -0.3587   -0.6328    3.5440 C.2       1 <0>         0.6128
     10 O1         -0.6025   -1.8256    3.5251 O.2       1 <0>        -0.4893
     11 C9         -0.4639    0.1152    4.7961 C.2       1 <0>        -0.3075
     12 C10        -0.8133   -0.3251    6.0652 C.2       1 <0>         0.1714
     13 N2         -0.8238    0.5790    7.0120 N.2       1 <0>        -0.5181
     14 C11        -0.5171    1.8402    6.7651 C.2       1 <0>         0.3094
     15 S1         -0.1707    1.8470    5.1183 S.3       1 <0>         0.1373
     16 N3         -0.4832    2.9000    7.6497 N.pl3     1 <0>        -0.5906
     17 C12        -0.6915    2.6802    9.0049 C.ar      1 <0>         0.4405
     18 C13        -0.5500    3.7200    9.9184 C.ar      1 <0>        -0.3335
     19 C14        -0.7697    3.4482   11.2656 C.ar      1 <0>         0.4651
     20 N4         -1.1049    2.2117   11.6290 N.ar      1 <0>        -0.5940
     21 C15        -1.2289    1.2539   10.7331 C.ar      1 <0>         0.3746
     22 N5         -1.0348    1.4726    9.4484 N.ar      1 <0>        -0.5469
     23 N6         -0.6410    4.4499   12.2152 N.pl3     1 <0>        -0.6006
     24 C16        -0.6632    4.1379   13.6531 C.3       1 <0>         0.0893
     25 C17         0.5535    4.7995   14.3103 C.3       1 <0>         0.0454
     26 O2          0.5810    6.1857   13.9618 O.3       1 <0>        -0.3775
     27 C18         0.7300    6.4344   12.5619 C.3       1 <0>         0.0465
     28 C19        -0.4720    5.8559   11.8151 C.3       1 <0>         0.0851
     29 Cl1         1.4877   -2.5826    2.4397 Cl        1 <0>        -0.0432
     30 H1         -0.7113    1.9721   -0.0306 H         1 <0>         0.0755
     31 H2         -2.2460    1.1761   -0.4538 H         1 <0>         0.0755
     32 H3         -1.7422    1.2891    1.2496 H         1 <0>         0.0675
     33 H4         -1.1978   -0.4204   -1.9550 H         1 <0>         0.1338
     34 H5         -0.0257   -2.5739   -2.1620 H         1 <0>         0.1352
     35 H6          1.1586   -3.5274   -0.2264 H         1 <0>         0.1372
     36 H7          0.2798    0.9287    2.4401 H         1 <0>         0.4086
     37 H8         -1.0634   -1.3573    6.2610 H         1 <0>         0.1890
     38 H9         -0.3138    3.7980    7.3244 H         1 <0>         0.4390
     39 H10        -0.2766    4.7121    9.5907 H         1 <0>         0.1424
     40 H11        -1.5020    0.2617   11.0606 H         1 <0>         0.2014
     41 H12        -1.5784    4.5273   14.0992 H         1 <0>         0.0750
     42 H13        -0.6154    3.0583   13.7953 H         1 <0>         0.1073
     43 H14         0.4827    4.6977   15.3932 H         1 <0>         0.1098
     44 H15         1.4651    4.3172   13.9574 H         1 <0>         0.0562
     45 H16         0.7862    7.5088   12.3869 H         1 <0>         0.1100
     46 H17         1.6423    5.9581   12.2026 H         1 <0>         0.0569
     47 H18        -0.2976    5.9133   10.7407 H         1 <0>         0.0949
     48 H19        -1.3676    6.4211   12.0730 H         1 <0>         0.0810
@<TRIPOS>BOND
     1    1    2 1
     2    1   30 1
     3    1   31 1
     4    1   32 1
     5    2    7 ar
     6    2    3 ar
     7    3    4 ar
     8    3   33 1
     9    4    5 ar
    10    4   34 1
    11    5    6 ar
    12    5   35 1
    13    6    7 ar
    14    6   29 1
    15    7    8 1
    16    8    9 am
    17    8   36 1
    18    9   10 2
    19    9   11 1
    20   11   15 1
    21   11   12 2
    22   12   13 1
    23   12   37 1
    24   13   14 2
    25   14   15 1
    26   14   16 1
    27   16   17 1
    28   16   38 1
    29   17   22 ar
    30   17   18 ar
    31   18   19 ar
    32   18   39 1
    33   19   20 ar
    34   19   23 1
    35   20   21 ar
    36   21   22 ar
    37   21   40 1
    38   23   28 1
    39   23   24 1
    40   24   25 1
    41   24   41 1
    42   24   42 1
    43   25   26 1
    44   25   43 1
    45   25   44 1
    46   26   27 1
    47   27   28 1
    48   27   45 1
    49   27   46 1
    50   28   47 1
    51   28   48 1
@<TRIPOS>MOLECULE
CHEMBL189649__1
   49    52     0     0     0
SMALL
USER_CHARGES

@<TRIPOS>ATOM
      1 C1         -2.1458    1.7153    0.2423 C.3       1 <0>        -0.1170
      2 C2         -1.7261    0.2833    0.0319 C.ar      1 <0>        -0.0812
      3 C3         -1.9362   -0.3264   -1.1899 C.ar      1 <0>        -0.1034
      4 C4         -1.5517   -1.6401   -1.3844 C.ar      1 <0>        -0.0987
      5 C5         -0.9556   -2.3488   -0.3571 C.ar      1 <0>        -0.1045
      6 C6         -0.7428   -1.7454    0.8676 C.ar      1 <0>        -0.0218
      7 C7         -1.1228   -0.4227    1.0639 C.ar      1 <0>         0.1342
      8 N1         -0.9030    0.1938    2.3003 N.am      1 <0>        -0.6656
      9 C8         -1.3316   -0.3967    3.4335 C.2       1 <0>         0.6009
     10 O1         -1.8193   -1.5116    3.3921 O.2       1 <0>        -0.4711
     11 C9         -1.2109    0.3015    4.7126 C.2       1 <0>        -0.2609
     12 C10        -1.5755   -0.1122    5.9864 C.2       1 <0>         0.1497
     13 N2         -1.3462    0.7324    6.9600 N.2       1 <0>        -0.5511
     14 C11        -0.7971    1.9128    6.7346 C.2       1 <0>         0.2472
     15 S1         -0.5462    1.9199    5.0705 S.3       1 <0>         0.2482
     16 N3         -0.4954    2.9031    7.6483 N.pl3     1 <0>        -0.5856
     17 C12        -0.6975    2.6818    9.0043 C.ar      1 <0>         0.4553
     18 C13        -1.0604    1.4210    9.4672 C.ar      1 <0>        -0.2885
     19 C14        -1.2512    1.2508   10.8352 C.ar      1 <0>         0.4921
     20 N4         -1.0808    2.2935   11.6460 N.ar      1 <0>        -0.5338
     21 C15        -0.7367    3.4721   11.1684 C.ar      1 <0>         0.4347
     22 N5         -0.5415    3.6718    9.8809 N.ar      1 <0>        -0.5660
     23 N6         -1.6138    0.0143   11.3464 N.pl3     1 <0>        -0.5427
     24 C16        -2.0566   -0.1279   12.7425 C.3       1 <0>         0.0680
     25 C17        -3.3792   -0.9027   12.7537 C.3       1 <0>         0.0447
     26 O2         -3.2215   -2.1141   12.0111 O.3       1 <0>        -0.3673
     27 C18        -2.9144   -1.9174   10.6288 C.3       1 <0>         0.0457
     28 C19        -1.5733   -1.1937   10.5071 C.3       1 <0>         0.0634
     29 Cl1         0.0050   -2.6355    2.1569 Cl        1 <0>        -0.0455
     30 H1         -1.3242    2.3783   -0.0290 H         1 <0>         0.0773
     31 H2         -3.0117    1.9356   -0.3820 H         1 <0>         0.0787
     32 H3         -2.4049    1.8678    1.2900 H         1 <0>         0.0639
     33 H4         -2.4017    0.2239   -1.9942 H         1 <0>         0.1374
     34 H5         -1.7176   -2.1141   -2.3405 H         1 <0>         0.1392
     35 H6         -0.6564   -3.3749   -0.5123 H         1 <0>         0.1405
     36 H7         -0.4422    1.0463    2.3420 H         1 <0>         0.4082
     37 H8         -2.0243   -1.0782    6.1646 H         1 <0>         0.2038
     38 H9         -0.1423    3.7534    7.3430 H         1 <0>         0.4470
     39 H10        -1.1911    0.5959    8.7827 H         1 <0>         0.2221
     40 H11        -0.6063    4.2974   11.8527 H         1 <0>         0.2505
     41 H12        -1.3055   -0.6756   13.3118 H         1 <0>         0.0997
     42 H13        -2.2049    0.8580   13.1829 H         1 <0>         0.1162
     43 H14        -3.6541   -1.1390   13.7817 H         1 <0>         0.1232
     44 H15        -4.1609   -0.2952   12.2976 H         1 <0>         0.0628
     45 H16        -2.8548   -2.8838   10.1280 H         1 <0>         0.1242
     46 H17        -3.6944   -1.3137   10.1649 H         1 <0>         0.0649
     47 H18        -1.4018   -0.9132    9.4679 H         1 <0>         0.1103
     48 H19        -0.7727   -1.8505   10.8475 H         1 <0>         0.1052
     49 H20        -0.2847    4.5529    9.5669 H         1 <0>         0.4457
@<TRIPOS>BOND
     1    1    2 1
     2    1   30 1
     3    1   31 1
     4    1   32 1
     5    2    7 ar
     6    2    3 ar
     7    3    4 ar
     8    3   33 1
     9    4    5 ar
    10    4   34 1
    11    5    6 ar
    12    5   35 1
    13    6    7 ar
    14    6   29 1
    15    7    8 1
    16    8    9 am
    17    8   36 1
    18    9   10 2
    19    9   11 1
    20   11   15 1
    21   11   12 2
    22   12   13 1
    23   12   37 1
    24   13   14 2
    25   14   15 1
    26   14   16 1
    27   16   17 1
    28   16   38 1
    29   17   22 ar
    30   17   18 ar
    31   18   19 ar
    32   18   39 1
    33   19   20 ar
    34   19   23 1
    35   20   21 ar
    36   21   22 ar
    37   21   40 1
    38   22   49 1
    39   23   28 1
    40   23   24 1
    41   24   25 1
    42   24   41 1
    43   24   42 1
    44   25   26 1
    45   25   43 1
    46   25   44 1
    47   26   27 1
    48   27   28 1
    49   27   45 1
    50   27   46 1
    51   28   47 1
    52   28   48 1
@<TRIPOS>MOLECULE
CHEMBL189649__2
   49    52     0     0     0
SMALL
USER_CHARGES

@<TRIPOS>ATOM
      1 C1         -1.2346    1.1507    0.2206 C.3       1 <0>        -0.1168
      2 C2         -0.5434   -0.1840    0.1108 C.ar      1 <0>        -0.0822
      3 C3         -0.5410   -0.8644   -1.0916 C.ar      1 <0>        -0.1038
      4 C4          0.0926   -2.0890   -1.1938 C.ar      1 <0>        -0.1005
      5 C5          0.7262   -2.6374   -0.0935 C.ar      1 <0>        -0.1048
      6 C6          0.7273   -1.9625    1.1122 C.ar      1 <0>        -0.0225
      7 C7          0.0963   -0.7282    1.2162 C.ar      1 <0>         0.1368
      8 N1          0.1010   -0.0387    2.4334 N.am      1 <0>        -0.6674
      9 C8         -0.2999   -0.6589    3.5608 C.2       1 <0>         0.6029
     10 O1         -0.5696   -1.8461    3.5396 O.2       1 <0>        -0.4749
     11 C9         -0.4110    0.0938    4.8096 C.2       1 <0>        -0.2668
     12 C10        -0.7928   -0.3360    6.0729 C.2       1 <0>         0.1515
     13 N2         -0.8000    0.5700    7.0179 N.2       1 <0>        -0.5052
     14 C11        -0.4608    1.8236    6.7745 C.2       1 <0>         0.2411
     15 S1         -0.0854    1.8194    5.1341 S.3       1 <0>         0.2075
     16 N3         -0.4190    2.8841    7.6578 N.pl3     1 <0>        -0.5629
     17 C12        -0.6592    2.6722    9.0091 C.ar      1 <0>         0.4987
     18 C13        -0.5160    3.7112    9.9226 C.ar      1 <0>        -0.3098
     19 C14        -0.7685    3.4475   11.2660 C.ar      1 <0>         0.4918
     20 N4         -1.1353    2.2190   11.6254 N.ar      1 <0>        -0.5713
     21 C15        -1.2598    1.2612   10.7291 C.ar      1 <0>         0.4311
     22 N5         -1.0353    1.4725    9.4484 N.ar      1 <0>        -0.4873
     23 N6         -0.6395    4.4490   12.2157 N.pl3     1 <0>        -0.5796
     24 C16        -0.7704    4.1532   13.6512 C.3       1 <0>         0.0595
     25 C17         0.4403    4.7475   14.3798 C.3       1 <0>         0.0465
     26 O2          0.5729    6.1261   14.0252 O.3       1 <0>        -0.3628
     27 C18         0.8241    6.3515   12.6360 C.3       1 <0>         0.0425
     28 C19        -0.3614    5.8384   11.8184 C.3       1 <0>         0.0727
     29 Cl1         1.5222   -2.6514    2.4932 Cl        1 <0>        -0.0452
     30 H1         -0.5302    1.9458   -0.0239 H         1 <0>         0.0768
     31 H2         -2.0744    1.1832   -0.4734 H         1 <0>         0.0780
     32 H3         -1.5990    1.2885    1.2386 H         1 <0>         0.0646
     33 H4         -1.0350   -0.4394   -1.9528 H         1 <0>         0.1366
     34 H5          0.0925   -2.6187   -2.1350 H         1 <0>         0.1384
     35 H6          1.2203   -3.5942   -0.1767 H         1 <0>         0.1398
     36 H7          0.3927    0.8858    2.4660 H         1 <0>         0.4083
     37 H8         -1.0694   -1.3620    6.2658 H         1 <0>         0.1987
     38 H9         -0.2219    3.7771    7.3345 H         1 <0>         0.4530
     39 H10        -0.2164    4.6968    9.5982 H         1 <0>         0.1841
     40 H11        -1.5590    0.2754   11.0532 H         1 <0>         0.2493
     41 H12        -1.6867    4.6009   14.0362 H         1 <0>         0.1119
     42 H13        -0.7967    3.0741   13.8027 H         1 <0>         0.0927
     43 H14         0.2958    4.6608   15.4567 H         1 <0>         0.1268
     44 H15         1.3415    4.2082   14.0881 H         1 <0>         0.0666
     45 H16         0.9557    7.4189   12.4583 H         1 <0>         0.1274
     46 H17         1.7267    5.8181   12.3379 H         1 <0>         0.0668
     47 H18        -0.1169    5.8747   10.7568 H         1 <0>         0.1107
     48 H19        -1.2357    6.4586   12.0157 H         1 <0>         0.1083
     49 H20        -1.3128    2.0265   12.5593 H         1 <0>         0.4424
@<TRIPOS>BOND
     1    1    2 1
     2    1   30 1
     3    1   31 1
     4    1   32 1
     5    2    7 ar
     6    2    3 ar
     7    3    4 ar
     8    3   33 1
     9    4    5 ar
    10    4   34 1
    11    5    6 ar
    12    5   35 1
    13    6    7 ar
    14    6   29 1
    15    7    8 1
    16    8    9 am
    17    8   36 1
    18    9   10 2
    19    9   11 1
    20   11   15 1
    21   11   12 2
    22   12   13 1
    23   12   37 1
    24   13   14 2
    25   14   15 1
    26   14   16 1
    27   16   17 1
    28   16   38 1
    29   17   18 ar
    30   17   22 ar
    31   18   39 1
    32   18   19 ar
    33   19   23 1
    34   19   20 ar
    35   20   49 1
    36   20   21 ar
    37   21   40 1
    38   21   22 ar
    39   23   28 1
    40   23   24 1
    41   24   25 1
    42   24   41 1
    43   24   42 1
    44   25   26 1
    45   25   43 1
    46   25   44 1
    47   26   27 1
    48   27   28 1
    49   27   45 1
    50   27   46 1
    51   28   47 1
    52   28   48 1
@<TRIPOS>MOLECULE
CHEMBL573578
   46    49     0     0     0
SMALL
USER_CHARGES

@<TRIPOS>ATOM
      1 C1         -0.4024    1.4640   -0.2596 C.3       1 <0>        -0.1435
      2 C2         -0.2022   -0.0486   -0.1459 C.3       1 <0>         0.1912
      3 C3          0.5317   -0.3694    1.1577 C.3       1 <0>        -0.1615
      4 C4         -1.5645   -0.7450   -0.1490 C.3       1 <0>        -0.1622
      5 N1          0.5913   -0.5229   -1.2824 N.pl3     1 <0>        -0.3634
      6 C5          0.9612   -1.8141   -1.5150 C.ar      1 <0>         0.3746
      7 C6          1.7077   -1.8088   -2.7096 C.ar      1 <0>        -0.3278
      8 C7          1.7573   -0.4719   -3.1602 C.2       1 <0>         0.1297
      9 N2          1.0952    0.2715   -2.3201 N.2       1 <0>        -0.2391
     10 C8          2.4532    0.0125   -4.4060 C.3       1 <0>        -0.0064
     11 C9          1.4787    0.0187   -5.5556 C.ar      1 <0>        -0.0714
     12 C10         1.4067   -1.0488   -6.3972 C.ar      1 <0>        -0.1084
     13 C11         0.5121   -1.0612   -7.4653 C.ar      1 <0>        -0.1155
     14 C12        -0.3156   -0.0059   -7.6985 C.ar      1 <0>        -0.1014
     15 C13        -0.2700    1.1138   -6.8511 C.ar      1 <0>        -0.0506
     16 C14         0.6357    1.1238   -5.7608 C.ar      1 <0>        -0.0393
     17 C15         0.6771    2.2415   -4.9097 C.ar      1 <0>        -0.0979
     18 C16        -0.1547    3.2939   -5.1394 C.ar      1 <0>        -0.1148
     19 C17        -1.0498    3.2813   -6.2077 C.ar      1 <0>        -0.1134
     20 C18        -1.1085    2.2222   -7.0604 C.ar      1 <0>        -0.1091
     21 C19         2.2169   -3.0332   -3.1834 C.ar      1 <0>         0.5199
     22 N3          1.9692   -4.1339   -2.4817 N.ar      1 <0>        -0.6092
     23 C20         1.2632   -4.0896   -1.3658 C.ar      1 <0>         0.3850
     24 N4          0.7670   -2.9710   -0.8841 N.ar      1 <0>        -0.5722
     25 N5          2.9554   -3.0885   -4.3491 N.pl3     1 <0>        -0.8266
     26 H1          0.5681    1.9601   -0.2574 H         1 <0>         0.0677
     27 H2         -0.9252    1.6925   -1.1883 H         1 <0>         0.0677
     28 H3         -0.9928    1.8169    0.5860 H         1 <0>         0.0748
     29 H4         -0.0587   -0.0165    2.0033 H         1 <0>         0.0794
     30 H5          0.6743   -1.4470    1.2387 H         1 <0>         0.0761
     31 H6          1.5022    0.1268    1.1599 H         1 <0>         0.0599
     32 H7         -2.0873   -0.5165   -1.0777 H         1 <0>         0.0592
     33 H8         -1.4218   -1.8226   -0.0681 H         1 <0>         0.0763
     34 H9         -2.1548   -0.3922    0.6966 H         1 <0>         0.0794
     35 H10         2.8290    1.0226   -4.2429 H         1 <0>         0.1038
     36 H11         3.2855   -0.6517   -4.6388 H         1 <0>         0.0893
     37 H12         2.0530   -1.8987   -6.2348 H         1 <0>         0.1192
     38 H13         0.4751   -1.9207   -8.1182 H         1 <0>         0.1252
     39 H14        -1.0035   -0.0292   -8.5308 H         1 <0>         0.1280
     40 H15         1.3650    2.2650   -4.0775 H         1 <0>         0.1310
     41 H16        -0.1208    4.1515   -4.4839 H         1 <0>         0.1230
     42 H17        -1.6992    4.1294   -6.3675 H         1 <0>         0.1230
     43 H18        -1.8067    2.2268   -7.8844 H         1 <0>         0.1269
     44 H19         1.0860   -5.0091   -0.8278 H         1 <0>         0.2029
     45 H20         3.2072   -2.2692   -4.8032 H         1 <0>         0.4085
     46 H21         3.2222   -3.9468   -4.7139 H         1 <0>         0.4119
@<TRIPOS>BOND
     1    1    2 1
     2    1   26 1
     3    1   27 1
     4    1   28 1
     5    2    3 1
     6    2    4 1
     7    2    5 1
     8    3   29 1
     9    3   30 1
    10    3   31 1
    11    4   32 1
    12    4   33 1
    13    4   34 1
    14    5    9 1
    15    5    6 1
    16    6   24 ar
    17    6    7 ar
    18    7    8 1
    19    7   21 ar
    20    8    9 2
    21    8   10 1
    22   10   11 1
    23   10   35 1
    24   10   36 1
    25   11   16 ar
    26   11   12 ar
    27   12   13 ar
    28   12   37 1
    29   13   14 ar
    30   13   38 1
    31   14   15 ar
    32   14   39 1
    33   15   20 ar
    34   15   16 ar
    35   16   17 ar
    36   17   18 ar
    37   17   40 1
    38   18   19 ar
    39   18   41 1
    40   19   20 ar
    41   19   42 1
    42   20   43 1
    43   21   22 ar
    44   21   25 1
    45   22   23 ar
    46   23   24 ar
    47   23   44 1
    48   25   45 1
    49   25   46 1
@<TRIPOS>MOLECULE
CHEMBL219103
   59    62     0     0     0
SMALL
USER_CHARGES

@<TRIPOS>ATOM
      1 C1          0.0322    1.5036    0.0085 C.3       1 <0>        -0.1248
      2 C2          0.0404   -0.0034    0.0006 C.ar      1 <0>        -0.0296
      3 C3          0.0402   -0.6861   -1.1994 C.ar      1 <0>        -0.1235
      4 C4          0.0477   -2.0667   -1.2159 C.ar      1 <0>        -0.0708
      5 C5          0.0559   -2.7834   -0.0166 C.ar      1 <0>        -0.1429
      6 C6          0.0566   -2.1024    1.1984 C.ar      1 <0>        -0.0267
      7 C7          0.0540   -0.7073    1.2085 C.ar      1 <0>         0.0108
      8 C8          0.0601    0.0017    2.4526 C.1       1 <0>        -0.1166
      9 C9          0.0652    0.5830    3.4726 C.1       1 <0>        -0.0874
     10 C10         0.0714    1.2920    4.7168 C.ar      1 <0>        -0.1598
     11 C11         0.0580    2.6929    4.7462 C.ar      1 <0>         0.2263
     12 N1          0.0639    3.3086    5.9145 N.ar      1 <0>        -0.5673
     13 C12         0.0820    2.6201    7.0471 C.ar      1 <0>         0.5720
     14 N2          0.0950    1.2945    7.0621 N.ar      1 <0>        -0.5664
     15 C13         0.0850    0.6033    5.9370 C.ar      1 <0>         0.2275
     16 N3          0.0880    3.3049    8.2488 N.pl3     1 <0>        -0.8133
     17 C14         0.0634   -4.2617   -0.0372 C.2       1 <0>         0.5612
     18 O1          0.0706   -4.8841    1.0071 O.2       1 <0>        -0.5098
     19 N4          0.0623   -4.9193   -1.2137 N.am      1 <0>        -0.6565
     20 C15         0.1864   -6.3143   -1.2364 C.ar      1 <0>         0.1423
     21 C16         0.8058   -6.9747   -0.1858 C.ar      1 <0>        -0.0795
     22 C17         0.9276   -8.3514   -0.2105 C.ar      1 <0>        -0.1657
     23 C18         0.4330   -9.0744   -1.2805 C.ar      1 <0>        -0.0816
     24 C19        -0.1858   -8.4247   -2.3320 C.ar      1 <0>        -0.1049
     25 C20        -0.3176   -7.0440   -2.3130 C.ar      1 <0>         0.1748
     26 N5         -0.9491   -6.3848   -3.3731 N.pl3     1 <0>        -0.6791
     27 C21        -0.1772   -5.9284   -4.5370 C.3       1 <0>         0.1400
     28 C22        -0.8244   -6.4876   -5.8079 C.3       1 <0>        -0.1362
     29 C23        -2.3023   -6.0918   -5.8395 C.3       1 <0>        -0.1165
     30 C24        -3.0191   -6.6925   -4.6280 C.3       1 <0>        -0.1371
     31 C25        -2.3977   -6.1410   -3.3465 C.3       1 <0>         0.1446
     32 C26         1.6019   -9.0665    0.9318 C.3       1 <0>         0.5102
     33 F1          0.6490   -9.4016    1.8997 F         1 <0>        -0.1743
     34 F2          2.2136  -10.2315    0.4567 F         1 <0>        -0.1766
     35 F3          2.5691   -8.2302    1.4996 F         1 <0>        -0.1753
     36 H1          1.0578    1.8725    0.0021 H         1 <0>         0.0811
     37 H2         -0.4908    1.8687   -0.8755 H         1 <0>         0.0758
     38 H3         -0.4764    1.8595    0.9044 H         1 <0>         0.0730
     39 H4          0.0338   -0.1376   -2.1297 H         1 <0>         0.1383
     40 H5          0.0468   -2.5940   -2.1584 H         1 <0>         0.1278
     41 H6          0.0626   -2.6517    2.1283 H         1 <0>         0.1442
     42 H7          0.0436    3.2605    3.8275 H         1 <0>         0.1741
     43 H8          0.0914   -0.4765    5.9570 H         1 <0>         0.1753
     44 H9          0.0789    4.2748    8.2543 H         1 <0>         0.4176
     45 H10         0.1012    2.8152    9.0860 H         1 <0>         0.4178
     46 H11        -0.0245   -4.4265   -2.0446 H         1 <0>         0.4142
     47 H12         1.1932   -6.4132    0.6515 H         1 <0>         0.1600
     48 H13         0.5308  -10.1498   -1.2948 H         1 <0>         0.1383
     49 H14        -0.5706   -8.9925   -3.1663 H         1 <0>         0.1387
     50 H15        -0.1812   -4.8391   -4.5738 H         1 <0>         0.0516
     51 H16         0.8483   -6.2897   -4.4598 H         1 <0>         0.0712
     52 H17        -0.3195   -6.0790   -6.6833 H         1 <0>         0.0693
     53 H18        -0.7386   -7.5742   -5.8120 H         1 <0>         0.0655
     54 H19        -2.3881   -5.0056   -5.8103 H         1 <0>         0.0615
     55 H20        -2.7594   -6.4675   -6.7549 H         1 <0>         0.0617
     56 H21        -4.0763   -6.4297   -4.6636 H         1 <0>         0.0695
     57 H22        -2.9126   -7.7772   -4.6432 H         1 <0>         0.0648
     58 H23        -2.8369   -6.6425   -2.4841 H         1 <0>         0.0697
     59 H24        -2.5868   -5.0694   -3.2840 H         1 <0>         0.0515
@<TRIPOS>BOND
     1    1    2 1
     2    1   36 1
     3    1   37 1
     4    1   38 1
     5    2    7 ar
     6    2    3 ar
     7    3    4 ar
     8    3   39 1
     9    4    5 ar
    10    4   40 1
    11    5    6 ar
    12    5   17 1
    13    6    7 ar
    14    6   41 1
    15    7    8 1
    16    8    9 3
    17    9   10 1
    18   10   15 ar
    19   10   11 ar
    20   11   12 ar
    21   11   42 1
    22   12   13 ar
    23   13   14 ar
    24   13   16 1
    25   14   15 ar
    26   15   43 1
    27   16   44 1
    28   16   45 1
    29   17   18 2
    30   17   19 am
    31   19   20 1
    32   19   46 1
    33   20   25 ar
    34   20   21 ar
    35   21   22 ar
    36   21   47 1
    37   22   23 ar
    38   22   32 1
    39   23   24 ar
    40   23   48 1
    41   24   25 ar
    42   24   49 1
    43   25   26 1
    44   26   31 1
    45   26   27 1
    46   27   28 1
    47   27   50 1
    48   27   51 1
    49   28   29 1
    50   28   52 1
    51   28   53 1
    52   29   30 1
    53   29   54 1
    54   29   55 1
    55   30   31 1
    56   30   56 1
    57   30   57 1
    58   31   58 1
    59   31   59 1
    60   32   33 1
    61   32   34 1
    62   32   35 1
@<TRIPOS>MOLECULE
CHEMBL459044
   75    79     0     0     0
SMALL
USER_CHARGES

@<TRIPOS>ATOM
      1 C1         -8.6307   -2.4625   -5.7393 C.3       1 <0>        -0.1512
      2 C2         -7.2175   -3.0483   -5.7185 C.3       1 <0>         0.0537
      3 O1         -6.5433   -2.6238   -4.5321 O.3       1 <0>        -0.3076
      4 C3         -5.2671   -3.0597   -4.3578 C.ar      1 <0>         0.1408
      5 C4         -4.6749   -3.8733   -5.3105 C.ar      1 <0>        -0.2015
      6 C5         -3.3773   -4.3151   -5.1319 C.ar      1 <0>        -0.0670
      7 C6         -2.6676   -3.9476   -4.0036 C.ar      1 <0>        -0.1452
      8 C7         -3.2522   -3.1363   -3.0494 C.ar      1 <0>        -0.0700
      9 C8         -4.5508   -2.6851   -3.2249 C.ar      1 <0>         0.0436
     10 O2         -5.1255   -1.8823   -2.2898 O.3       1 <0>        -0.1879
     11 C9         -5.9660   -2.4505   -1.3950 C.ar      1 <0>         0.4620
     12 C10        -6.6752   -1.6550   -0.4716 C.ar      1 <0>        -0.3059
     13 C11        -7.5313   -2.2951    0.4317 C.ar      1 <0>         0.2466
     14 N1         -7.6434   -3.6098    0.3874 N.ar      1 <0>        -0.5778
     15 C12        -6.9598   -4.3264   -0.4962 C.ar      1 <0>         0.6110
     16 N2         -6.1415   -3.7643   -1.3747 N.ar      1 <0>        -0.6028
     17 N3         -7.1098   -5.6984   -0.5044 N.pl3     1 <0>        -0.6260
     18 C13        -8.0545   -6.3047    0.3335 C.ar      1 <0>         0.1308
     19 C14        -9.2081   -5.6186    0.6900 C.ar      1 <0>        -0.0682
     20 C15       -10.1396   -6.2163    1.5155 C.ar      1 <0>        -0.1624
     21 C16        -9.9228   -7.5036    1.9894 C.ar      1 <0>         0.1773
     22 C17        -8.7692   -8.1897    1.6328 C.ar      1 <0>        -0.1609
     23 C18        -7.8403   -7.5939    0.8030 C.ar      1 <0>        -0.1003
     24 N4        -10.8666   -8.1093    2.8264 N.pl3     1 <0>        -0.6459
     25 C19       -10.5998   -9.4166    3.4458 C.3       1 <0>         0.0990
     26 C20       -10.8839   -9.3096    4.9477 C.3       1 <0>        -0.0237
     27 N5        -12.2492   -8.8094    5.1522 N.4       1 <0>        -0.5038
     28 C21       -12.3642   -7.4419    4.6299 C.3       1 <0>        -0.0237
     29 C22       -12.1512   -7.4538    3.1168 C.3       1 <0>         0.0978
     30 C23        -6.5189   -0.1911   -0.4578 C.2       1 <0>         0.5735
     31 O3         -5.7700    0.3481   -1.2502 O.2       1 <0>        -0.4900
     32 N6         -7.2057    0.5515    0.4329 N.am      1 <0>        -0.6754
     33 C24        -7.0999    1.9459    0.4100 C.ar      1 <0>         0.1331
     34 C25        -8.2381    2.7279    0.2619 C.ar      1 <0>        -0.0906
     35 C26        -8.1301    4.1046    0.2396 C.ar      1 <0>        -0.1170
     36 C27        -6.8904    4.7045    0.3643 C.ar      1 <0>        -0.1114
     37 C28        -5.7552    3.9288    0.5115 C.ar      1 <0>        -0.1155
     38 C29        -5.8570    2.5518    0.5411 C.ar      1 <0>        -0.0644
     39 C30        -4.6201    1.7073    0.7089 C.3       1 <0>        -0.1087
     40 C31        -9.5894    2.0750    0.1250 C.3       1 <0>        -0.1140
     41 H1         -9.1449   -2.7863   -6.6442 H         1 <0>         0.0819
     42 H2         -9.1809   -2.8098   -4.8647 H         1 <0>         0.0618
     43 H3         -8.5732   -1.3741   -5.7237 H         1 <0>         0.0688
     44 H4         -7.2750   -4.1366   -5.7340 H         1 <0>         0.0624
     45 H5         -6.6673   -2.7010   -6.5930 H         1 <0>         0.0666
     46 H6         -5.2272   -4.1624   -6.1924 H         1 <0>         0.1355
     47 H7         -2.9170   -4.9491   -5.8752 H         1 <0>         0.1332
     48 H8         -1.6543   -4.2955   -3.8675 H         1 <0>         0.1350
     49 H9         -2.6957   -2.8510   -2.1688 H         1 <0>         0.1367
     50 H10        -8.0920   -1.7218    1.1551 H         1 <0>         0.1788
     51 H11        -6.5610   -6.2428   -1.0903 H         1 <0>         0.4271
     52 H12        -9.3764   -4.6174    0.3218 H         1 <0>         0.1482
     53 H13       -11.0365   -5.6826    1.7930 H         1 <0>         0.1259
     54 H14        -8.6006   -9.1908    2.0013 H         1 <0>         0.1270
     55 H15        -6.9452   -8.1290    0.5222 H         1 <0>         0.1313
     56 H16       -11.2499  -10.1712    3.0030 H         1 <0>         0.0873
     57 H17        -9.5564   -9.6902    3.2890 H         1 <0>         0.1258
     58 H18       -10.7844  -10.2929    5.4074 H         1 <0>         0.1431
     59 H19       -10.1724   -8.6213    5.4040 H         1 <0>         0.1344
     60 H20       -12.9015   -9.4086    4.6690 H         1 <0>         0.4282
     61 H21       -13.3556   -7.0489    4.8555 H         1 <0>         0.1435
     62 H22       -11.6080   -6.8101    5.0958 H         1 <0>         0.1344
     63 H23       -12.1330   -6.4302    2.7426 H         1 <0>         0.1270
     64 H24       -12.9606   -8.0068    2.6402 H         1 <0>         0.0871
     65 H25        -7.7734    0.1190    1.0897 H         1 <0>         0.4013
     66 H26        -9.0148    4.7133    0.1245 H         1 <0>         0.1259
     67 H27        -6.8086    5.7813    0.3462 H         1 <0>         0.1256
     68 H28        -4.7884    4.4004    0.6082 H         1 <0>         0.1261
     69 H29        -4.1366    1.5748   -0.2590 H         1 <0>         0.0846
     70 H30        -3.9321    2.2027    1.3939 H         1 <0>         0.0626
     71 H31        -4.8970    0.7336    1.1130 H         1 <0>         0.0549
     72 H32       -10.0678    2.0216    1.1029 H         1 <0>         0.0708
     73 H33       -10.2100    2.6626   -0.5515 H         1 <0>         0.0708
     74 H34        -9.4677    1.0685   -0.2754 H         1 <0>         0.0627
     75 H35       -12.4622   -8.8105    6.1385 H         1 <0>         0.4333
@<TRIPOS>BOND
     1    1    2 1
     2    1   41 1
     3    1   42 1
     4    1   43 1
     5    2    3 1
     6    2   44 1
     7    2   45 1
     8    3    4 1
     9    4    9 ar
    10    4    5 ar
    11    5    6 ar
    12    5   46 1
    13    6    7 ar
    14    6   47 1
    15    7    8 ar
    16    7   48 1
    17    8    9 ar
    18    8   49 1
    19    9   10 1
    20   10   11 1
    21   11   16 ar
    22   11   12 ar
    23   12   13 ar
    24   12   30 1
    25   13   14 ar
    26   13   50 1
    27   14   15 ar
    28   15   16 ar
    29   15   17 1
    30   17   18 1
    31   17   51 1
    32   18   23 ar
    33   18   19 ar
    34   19   20 ar
    35   19   52 1
    36   20   21 ar
    37   20   53 1
    38   21   22 ar
    39   21   24 1
    40   22   23 ar
    41   22   54 1
    42   23   55 1
    43   24   29 1
    44   24   25 1
    45   25   26 1
    46   25   56 1
    47   25   57 1
    48   26   27 1
    49   26   58 1
    50   26   59 1
    51   27   28 1
    52   27   60 1
    53   27   75 1
    54   28   29 1
    55   28   61 1
    56   28   62 1
    57   29   63 1
    58   29   64 1
    59   30   31 2
    60   30   32 am
    61   32   33 1
    62   32   65 1
    63   33   38 ar
    64   33   34 ar
    65   34   35 ar
    66   34   40 1
    67   35   36 ar
    68   35   66 1
    69   36   37 ar
    70   36   67 1
    71   37   38 ar
    72   37   68 1
    73   38   39 1
    74   39   69 1
    75   39   70 1
    76   39   71 1
    77   40   72 1
    78   40   73 1
    79   40   74 1
@<TRIPOS>MOLECULE
CHEMBL304760
   39    42     0     0     0
SMALL
USER_CHARGES

@<TRIPOS>ATOM
      1 C1          2.6893    0.7513    4.5329 C.ar      1 <0>        -0.1538
      2 C2          2.6529    1.6172    3.4554 C.ar      1 <0>        -0.0823
      3 C3          2.7846    1.1283    2.1702 C.ar      1 <0>        -0.1469
      4 C4          2.9540   -0.2330    1.9610 C.ar      1 <0>         0.1219
      5 C5          2.9906   -1.0997    3.0441 C.ar      1 <0>        -0.1949
      6 C6          2.8579   -0.6056    4.3272 C.ar      1 <0>        -0.0826
      7 O1          3.0833   -0.7166    0.6978 O.3       1 <0>        -0.2576
      8 C7          3.2786   -2.0531    0.5428 C.ar      1 <0>         0.0686
      9 C8          2.1910   -2.9141    0.5143 C.ar      1 <0>        -0.1058
     10 C9          2.3886   -4.2716    0.3570 C.ar      1 <0>        -0.0952
     11 C10         3.6764   -4.7751    0.2272 C.ar      1 <0>         0.1558
     12 C11         4.7646   -3.9126    0.2558 C.ar      1 <0>        -0.1316
     13 C12         4.5652   -2.5548    0.4075 C.ar      1 <0>        -0.1012
     14 N1          3.8775   -6.1512    0.0681 N.pl3     1 <0>        -0.6392
     15 C13         2.9658   -6.9037   -0.6420 C.ar      1 <0>         0.4654
     16 C14         3.0815   -8.3139   -0.7093 C.ar      1 <0>        -0.1905
     17 C15         4.1129   -9.0074   -0.0667 C.ar      1 <0>        -0.0752
     18 C16         4.1728  -10.3664   -0.1668 C.ar      1 <0>        -0.1270
     19 C17         3.2224  -11.0717   -0.8996 C.ar      1 <0>        -0.0734
     20 C18         2.2053  -10.4255   -1.5372 C.ar      1 <0>        -0.1068
     21 C19         2.1133   -9.0295   -1.4548 C.ar      1 <0>         0.1866
     22 N2          1.1326   -8.3450   -2.0625 N.ar      1 <0>        -0.5437
     23 C20         1.0750   -7.0380   -1.9657 C.ar      1 <0>         0.3446
     24 N3          1.9533   -6.3274   -1.2763 N.ar      1 <0>        -0.5818
     25 H1          2.5902    1.1361    5.5371 H         1 <0>         0.1250
     26 H2          2.5211    2.6766    3.6188 H         1 <0>         0.1313
     27 H3          2.7554    1.8048    1.3289 H         1 <0>         0.1324
     28 H4          3.1219   -2.1596    2.8840 H         1 <0>         0.1273
     29 H5          2.8863   -1.2796    5.1705 H         1 <0>         0.1251
     30 H6          1.1896   -2.5225    0.6157 H         1 <0>         0.1353
     31 H7          1.5419   -4.9417    0.3352 H         1 <0>         0.1427
     32 H8          5.7664   -4.3034    0.1548 H         1 <0>         0.1341
     33 H9          5.4110   -1.8835    0.4253 H         1 <0>         0.1366
     34 H10         4.6582   -6.5754    0.4573 H         1 <0>         0.4221
     35 H11         4.8562   -8.4706    0.5040 H         1 <0>         0.1262
     36 H12         4.9686  -10.9024    0.3289 H         1 <0>         0.1327
     37 H13         3.2920  -12.1475   -0.9644 H         1 <0>         0.1357
     38 H14         1.4751  -10.9858   -2.1022 H         1 <0>         0.1422
     39 H15         0.2720   -6.5187   -2.4676 H         1 <0>         0.1982
@<TRIPOS>BOND
     1    1    6 ar
     2    1    2 ar
     3    1   25 1
     4    2    3 ar
     5    2   26 1
     6    3    4 ar
     7    3   27 1
     8    4    5 ar
     9    4    7 1
    10    5    6 ar
    11    5   28 1
    12    6   29 1
    13    7    8 1
    14    8   13 ar
    15    8    9 ar
    16    9   10 ar
    17    9   30 1
    18   10   11 ar
    19   10   31 1
    20   11   12 ar
    21   11   14 1
    22   12   13 ar
    23   12   32 1
    24   13   33 1
    25   14   15 1
    26   14   34 1
    27   15   24 ar
    28   15   16 ar
    29   16   21 ar
    30   16   17 ar
    31   17   18 ar
    32   17   35 1
    33   18   19 ar
    34   18   36 1
    35   19   20 ar
    36   19   37 1
    37   20   21 ar
    38   20   38 1
    39   21   22 ar
    40   22   23 ar
    41   23   24 ar
    42   23   39 1
@<TRIPOS>MOLECULE
CHEMBL280565
   65    69     0     0     0
SMALL
USER_CHARGES

@<TRIPOS>ATOM
      1 C1          4.0704    0.0520   -0.6215 C.3       1 <0>        -0.0978
      2 C2          3.0812   -1.0760   -0.4791 C.2       1 <0>        -0.1731
      3 C3          2.3583   -1.4798   -1.5365 C.2       1 <0>         0.1486
      4 N1          1.4504   -2.4971   -1.4554 N.am      1 <0>        -0.6175
      5 C4          1.2192   -3.1637   -0.3073 C.2       1 <0>         0.5420
      6 C5          1.9609   -2.7933    0.8989 C.ar      1 <0>        -0.1103
      7 C6          2.9050   -1.7443    0.8114 C.ar      1 <0>         0.0217
      8 C7          3.6362   -1.3662    1.9417 C.ar      1 <0>        -0.0881
      9 C8          3.4477   -2.0088    3.1285 C.ar      1 <0>        -0.0868
     10 C9          2.5220   -3.0563    3.2381 C.ar      1 <0>         0.0718
     11 C10         1.7675   -3.4458    2.1217 C.ar      1 <0>         0.1108
     12 N2          0.9569   -4.4789    2.5429 N.pl3     1 <0>        -0.4858
     13 C11         1.2117   -4.6812    3.8696 C.2       1 <0>         0.5588
     14 N3          2.1415   -3.8517    4.2729 N.2       1 <0>        -0.5324
     15 N4          0.5988   -5.6329    4.6602 N.pl3     1 <0>        -0.6458
     16 C12         1.0113   -5.8129    5.9851 C.ar      1 <0>         0.1708
     17 C13         0.9500   -4.7546    6.8836 C.ar      1 <0>        -0.0162
     18 C14         1.3579   -4.9362    8.1917 C.ar      1 <0>        -0.0972
     19 C15         1.8265   -6.1693    8.6067 C.ar      1 <0>        -0.0912
     20 C16         1.8889   -7.2247    7.7155 C.ar      1 <0>        -0.0934
     21 C17         1.4778   -7.0520    6.4072 C.ar      1 <0>        -0.0359
     22 Cl1         1.5503   -8.3795    5.2909 Cl        1 <0>        -0.0434
     23 Cl2         0.3625   -3.2060    6.3635 Cl        1 <0>        -0.0352
     24 C18        -0.0007   -5.2218    1.7199 C.3       1 <0>         0.0789
     25 C19         4.2439   -1.5890    4.3372 C.3       1 <0>         0.0501
     26 N5          5.3661   -2.5170    4.5308 N.4       1 <0>        -0.5073
     27 C20         6.1421   -2.1078    5.7091 C.3       1 <0>         0.0521
     28 C21         7.2933   -3.0598    5.9077 C.ar      1 <0>        -0.2081
     29 C22         7.1284   -4.1888    6.6886 C.ar      1 <0>        -0.0479
     30 C23         8.1822   -5.0628    6.8726 C.ar      1 <0>        -0.1512
     31 C24         9.4067   -4.8072    6.2728 C.ar      1 <0>         0.1669
     32 C25         9.5696   -3.6739    5.4893 C.ar      1 <0>        -0.2104
     33 C26         8.5111   -2.8057    5.3042 C.ar      1 <0>        -0.0479
     34 O1         10.4451   -5.6652    6.4526 O.3       1 <0>        -0.3079
     35 C27        11.6763   -5.3385    5.8049 C.3       1 <0>         0.0213
     36 O2          0.4006   -4.0655   -0.2736 O.2       1 <0>        -0.5276
     37 C28         2.5555   -0.7855   -2.8594 C.3       1 <0>        -0.1312
     38 H1          4.8433   -0.0442    0.1410 H         1 <0>         0.0674
     39 H2          4.5280    0.0113   -1.6099 H         1 <0>         0.0747
     40 H3          3.5552    1.0046   -0.4985 H         1 <0>         0.0744
     41 H4          4.3536   -0.5618    1.8737 H         1 <0>         0.1495
     42 H5         -0.1177   -6.1767    4.2972 H         1 <0>         0.4264
     43 H6          1.3109   -4.1141    8.8904 H         1 <0>         0.1457
     44 H7          2.1448   -6.3082    9.6293 H         1 <0>         0.1483
     45 H8          2.2554   -8.1863    8.0432 H         1 <0>         0.1477
     46 H9          0.5392   -5.8784    1.0376 H         1 <0>         0.0853
     47 H10        -0.6467   -5.8187    2.3636 H         1 <0>         0.0714
     48 H11        -0.6070   -4.5210    1.1460 H         1 <0>         0.1175
     49 H12         4.6284   -0.5802    4.1866 H         1 <0>         0.1394
     50 H13         3.6025   -1.6055    5.2184 H         1 <0>         0.1430
     51 H14         5.0101   -3.4507    4.6702 H         1 <0>         0.4303
     52 H15         6.5267   -1.0991    5.5584 H         1 <0>         0.1367
     53 H16         5.5008   -2.1243    6.5902 H         1 <0>         0.1371
     54 H17         6.1749   -4.3874    7.1554 H         1 <0>         0.1382
     55 H18         8.0531   -5.9442    7.4832 H         1 <0>         0.1427
     56 H19        10.5219   -3.4726    5.0213 H         1 <0>         0.1401
     57 H20         8.6360   -1.9256    4.6908 H         1 <0>         0.1342
     58 H21        12.4195   -6.1034    6.0302 H         1 <0>         0.1105
     59 H22        11.5187   -5.2914    4.7274 H         1 <0>         0.0615
     60 H23        12.0299   -4.3717    6.1631 H         1 <0>         0.0627
     61 H24         3.3934   -1.2408   -3.3874 H         1 <0>         0.0927
     62 H25         1.6510   -0.8839   -3.4598 H         1 <0>         0.0788
     63 H26         2.7647    0.2704   -2.6880 H         1 <0>         0.0965
     64 H27         0.9552   -2.7479   -2.2508 H         1 <0>         0.4198
     65 H28         5.9598   -2.5017    3.7151 H         1 <0>         0.4232
@<TRIPOS>BOND
     1    1    2 1
     2    1   38 1
     3    1   39 1
     4    1   40 1
     5    2    7 1
     6    2    3 2
     7    3    4 1
     8    3   37 1
     9    4    5 am
    10    4   64 1
    11    5    6 1
    12    5   36 2
    13    6   11 ar
    14    6    7 ar
    15    7    8 ar
    16    8    9 ar
    17    8   41 1
    18    9   10 ar
    19    9   25 1
    20   10   14 1
    21   10   11 ar
    22   11   12 1
    23   12   13 1
    24   12   24 1
    25   13   14 2
    26   13   15 1
    27   15   16 1
    28   15   42 1
    29   16   21 ar
    30   16   17 ar
    31   17   18 ar
    32   17   23 1
    33   18   19 ar
    34   18   43 1
    35   19   20 ar
    36   19   44 1
    37   20   21 ar
    38   20   45 1
    39   21   22 1
    40   24   46 1
    41   24   47 1
    42   24   48 1
    43   25   26 1
    44   25   49 1
    45   25   50 1
    46   26   27 1
    47   26   51 1
    48   26   65 1
    49   27   28 1
    50   27   52 1
    51   27   53 1
    52   28   33 ar
    53   28   29 ar
    54   29   30 ar
    55   29   54 1
    56   30   31 ar
    57   30   55 1
    58   31   32 ar
    59   31   34 1
    60   32   33 ar
    61   32   56 1
    62   33   57 1
    63   34   35 1
    64   35   58 1
    65   35   59 1
    66   35   60 1
    67   37   61 1
    68   37   62 1
    69   37   63 1
@<TRIPOS>MOLECULE
CHEMBL280565__1
   64    68     0     0     0
SMALL
USER_CHARGES

@<TRIPOS>ATOM
      1 C1          4.0704    0.0520   -0.6215 C.3       1 <0>        -0.0985
      2 C2          3.0812   -1.0760   -0.4791 C.2       1 <0>        -0.1571
      3 C3          2.3583   -1.4798   -1.5365 C.2       1 <0>         0.1252
      4 N1          1.4504   -2.4971   -1.4554 N.am      1 <0>        -0.6215
      5 C4          1.2192   -3.1637   -0.3073 C.2       1 <0>         0.5464
      6 C5          1.9609   -2.7933    0.8989 C.ar      1 <0>        -0.1408
      7 C6          2.9050   -1.7443    0.8114 C.ar      1 <0>         0.0271
      8 C7          3.6362   -1.3662    1.9417 C.ar      1 <0>        -0.1154
      9 C8          3.4477   -2.0088    3.1285 C.ar      1 <0>         0.0053
     10 C9          2.5220   -3.0563    3.2381 C.ar      1 <0>         0.0687
     11 C10         1.7675   -3.4458    2.1217 C.ar      1 <0>         0.1050
     12 N2          0.9569   -4.4789    2.5429 N.pl3     1 <0>        -0.4895
     13 C11         1.2117   -4.6812    3.8696 C.2       1 <0>         0.5309
     14 N3          2.1415   -3.8517    4.2729 N.2       1 <0>        -0.5080
     15 N4          0.5988   -5.6329    4.6602 N.pl3     1 <0>        -0.6517
     16 C12         1.0113   -5.8129    5.9851 C.ar      1 <0>         0.1817
     17 C13         0.9500   -4.7546    6.8836 C.ar      1 <0>        -0.0136
     18 C14         1.3579   -4.9362    8.1917 C.ar      1 <0>        -0.0967
     19 C15         1.8265   -6.1693    8.6067 C.ar      1 <0>        -0.0969
     20 C16         1.8889   -7.2247    7.7155 C.ar      1 <0>        -0.0958
     21 C17         1.4778   -7.0520    6.4072 C.ar      1 <0>        -0.0371
     22 Cl1         1.5503   -8.3795    5.2909 Cl        1 <0>        -0.0500
     23 Cl2         0.3625   -3.2060    6.3635 Cl        1 <0>        -0.0343
     24 C18        -0.0007   -5.2218    1.7199 C.3       1 <0>         0.0865
     25 C19         4.2439   -1.5890    4.3372 C.3       1 <0>         0.1014
     26 N5          5.3661   -2.5170    4.5308 N.3       1 <0>        -0.6760
     27 C20         6.1663   -2.1381    5.7030 C.3       1 <0>         0.1041
     28 C21         7.3054   -3.1106    5.8693 C.ar      1 <0>        -0.1195
     29 C22         7.1348   -4.2489    6.6353 C.ar      1 <0>        -0.0711
     30 C23         8.1776   -5.1418    6.7896 C.ar      1 <0>        -0.1524
     31 C24         9.3967   -4.8956    6.1748 C.ar      1 <0>         0.1268
     32 C25         9.5652   -3.7530    5.4064 C.ar      1 <0>        -0.2099
     33 C26         8.5176   -2.8659    5.2509 C.ar      1 <0>        -0.0561
     34 O1         10.4242   -5.7722    6.3255 O.3       1 <0>        -0.3191
     35 C27        11.6503   -5.4545    5.6638 C.3       1 <0>         0.0272
     36 O2          0.4006   -4.0655   -0.2736 O.2       1 <0>        -0.5426
     37 C28         2.5555   -0.7855   -2.8594 C.3       1 <0>        -0.1233
     38 H1          4.8433   -0.0442    0.1410 H         1 <0>         0.0727
     39 H2          4.5280    0.0113   -1.6099 H         1 <0>         0.0694
     40 H3          3.5553    1.0046   -0.4985 H         1 <0>         0.0707
     41 H4          4.3536   -0.5618    1.8737 H         1 <0>         0.1410
     42 H5         -0.1177   -6.1767    4.2972 H         1 <0>         0.4212
     43 H6          1.3109   -4.1141    8.8904 H         1 <0>         0.1430
     44 H7          2.1448   -6.3082    9.6293 H         1 <0>         0.1447
     45 H8          2.2554   -8.1863    8.0432 H         1 <0>         0.1441
     46 H9          0.5392   -5.8784    1.0376 H         1 <0>         0.0780
     47 H10        -0.6467   -5.8187    2.3636 H         1 <0>         0.0632
     48 H11        -0.6070   -4.5209    1.1460 H         1 <0>         0.1124
     49 H12         4.6284   -0.5803    4.1866 H         1 <0>         0.0815
     50 H13         3.6025   -1.6055    5.2184 H         1 <0>         0.0496
     51 H14         5.0392   -3.4684    4.6084 H         1 <0>         0.3488
     52 H15         6.5642   -1.1331    5.5619 H         1 <0>         0.0795
     53 H16         5.5383   -2.1584    6.5937 H         1 <0>         0.0392
     54 H17         6.1856   -4.4401    7.1137 H         1 <0>         0.1255
     55 H18         8.0440   -6.0304    7.3886 H         1 <0>         0.1289
     56 H19        10.5132   -3.5591    4.9268 H         1 <0>         0.1271
     57 H20         8.6469   -1.9784    4.6492 H         1 <0>         0.1258
     58 H21        11.4770   -5.3882    4.5898 H         1 <0>         0.0556
     59 H22        12.0243   -4.4988    6.0312 H         1 <0>         0.0556
     60 H23        12.3848   -6.2340    5.8659 H         1 <0>         0.1000
     61 H24         3.3934   -1.2408   -3.3874 H         1 <0>         0.0865
     62 H25         1.6510   -0.8839   -3.4598 H         1 <0>         0.0726
     63 H26         2.7647    0.2704   -2.6880 H         1 <0>         0.0918
     64 H27         0.9552   -2.7479   -2.2508 H         1 <0>         0.4125
@<TRIPOS>BOND
     1    1    2 1
     2    1   38 1
     3    1   39 1
     4    1   40 1
     5    2    7 1
     6    2    3 2
     7    3    4 1
     8    3   37 1
     9    4    5 am
    10    4   64 1
    11    5    6 1
    12    5   36 2
    13    6   11 ar
    14    6    7 ar
    15    7    8 ar
    16    8    9 ar
    17    8   41 1
    18    9   10 ar
    19    9   25 1
    20   10   14 1
    21   10   11 ar
    22   11   12 1
    23   12   13 1
    24   12   24 1
    25   13   14 2
    26   13   15 1
    27   15   16 1
    28   15   42 1
    29   16   21 ar
    30   16   17 ar
    31   17   18 ar
    32   17   23 1
    33   18   19 ar
    34   18   43 1
    35   19   20 ar
    36   19   44 1
    37   20   21 ar
    38   20   45 1
    39   21   22 1
    40   24   46 1
    41   24   47 1
    42   24   48 1
    43   25   26 1
    44   25   49 1
    45   25   50 1
    46   26   27 1
    47   26   51 1
    48   27   28 1
    49   27   52 1
    50   27   53 1
    51   28   33 ar
    52   28   29 ar
    53   29   30 ar
    54   29   54 1
    55   30   31 ar
    56   30   55 1
    57   31   32 ar
    58   31   34 1
    59   32   33 ar
    60   32   56 1
    61   33   57 1
    62   34   35 1
    63   35   58 1
    64   35   59 1
    65   35   60 1
    66   37   61 1
    67   37   62 1
    68   37   63 1
@<TRIPOS>MOLECULE
CHEMBL1075628
   84    89     0     0     0
SMALL
USER_CHARGES

@<TRIPOS>ATOM
      1 C1         -2.6207    0.9550    3.7496 C.3       1 <0>        -0.1112
      2 C2         -2.4500   -0.5310    3.5656 C.ar      1 <0>        -0.1387
      3 C3         -3.4246   -1.2622    2.9139 C.ar      1 <0>        -0.0721
      4 C4         -3.2721   -2.6245    2.7435 C.ar      1 <0>        -0.1420
      5 C5         -2.1371   -3.2641    3.2271 C.ar      1 <0>         0.1668
      6 C6         -1.1564   -2.5329    3.8815 C.ar      1 <0>        -0.1793
      7 C7         -1.3101   -1.1634    4.0465 C.ar      1 <0>         0.1910
      8 N1         -0.3218   -0.4220    4.7007 N.pl3     1 <0>        -0.6333
      9 C8          0.8849   -1.0105    5.0189 C.2       1 <0>         0.5496
     10 N2          1.2541   -2.2134    4.6574 N.2       1 <0>        -0.5111
     11 C9          2.4977   -2.4756    5.1397 C.ar      1 <0>         0.0757
     12 C10         3.3460   -3.5822    5.0534 C.ar      1 <0>        -0.0801
     13 C11         4.5794   -3.5479    5.6646 C.ar      1 <0>        -0.1117
     14 C12         4.9863   -2.4228    6.3660 C.ar      1 <0>        -0.1103
     15 C13         4.1599   -1.3216    6.4605 C.ar      1 <0>        -0.0839
     16 C14         2.9152   -1.3387    5.8510 C.ar      1 <0>         0.0579
     17 N3          1.8783   -0.4215    5.7551 N.pl3     1 <0>        -0.4558
     18 C15         1.8514    0.8577    6.3075 C.ar      1 <0>         0.4240
     19 C16         1.4073    1.9402    5.5573 C.ar      1 <0>        -0.3128
     20 C17         1.3997    3.1981    6.1547 C.ar      1 <0>         0.4673
     21 N4          1.8152    3.3174    7.4140 N.ar      1 <0>        -0.5757
     22 C18         2.2288    2.2659    8.0914 C.ar      1 <0>         0.3766
     23 N5          2.2454    1.0593    7.5625 N.ar      1 <0>        -0.5636
     24 N6          0.9665    4.3095    5.4488 N.pl3     1 <0>        -0.8254
     25 N7         -1.9838   -4.6435    3.0546 N.am      1 <0>        -0.6541
     26 C19        -2.4913   -5.2464    1.9612 C.2       1 <0>         0.6052
     27 O1         -2.9994   -4.5800    1.0803 O.2       1 <0>        -0.5110
     28 C20        -2.4302   -6.7163    1.8332 C.2       1 <0>        -0.0179
     29 C21        -2.9119   -7.4880    0.7492 C.2       1 <0>        -0.1669
     30 C22        -2.6391   -8.7742    1.0712 C.2       1 <0>         0.0055
     31 N8         -2.0307   -8.7643    2.2767 N.pl3     1 <0>        -0.2477
     32 N9         -1.9114   -7.5587    2.7043 N.2       1 <0>        -0.2396
     33 C23        -1.5677   -9.9564    2.9913 C.3       1 <0>         0.1662
     34 C24        -0.6669  -10.7841    2.0724 C.3       1 <0>        -0.1680
     35 C25        -0.7790   -9.5330    4.2321 C.3       1 <0>        -0.1508
     36 C26        -2.7734  -10.7971    3.4157 C.3       1 <0>        -0.1647
     37 C27        -2.9553   -9.9903    0.2394 C.3       1 <0>         0.1210
     38 N10        -1.7879  -10.3395   -0.5811 N.3       1 <0>        -0.5354
     39 C28        -1.5175   -9.2982   -1.5825 C.3       1 <0>         0.0195
     40 C29        -0.2622   -9.6701   -2.3746 C.3       1 <0>        -0.0016
     41 N11        -0.4655  -10.9668   -3.0341 N.4       1 <0>        -0.3882
     42 C30        -0.7099  -12.0008   -2.0200 C.3       1 <0>        -0.0020
     43 C31        -1.9690  -11.6482   -1.2249 C.3       1 <0>         0.0215
     44 C32         0.7330  -11.3149   -3.8090 C.3       1 <0>        -0.0459
     45 H1         -2.1912    1.4786    2.8956 H         1 <0>         0.0723
     46 H2         -3.6819    1.1922    3.8250 H         1 <0>         0.0763
     47 H3         -2.1126    1.2689    4.6614 H         1 <0>         0.0523
     48 H4         -4.3077   -0.7675    2.5371 H         1 <0>         0.1320
     49 H5         -4.0361   -3.1933    2.2343 H         1 <0>         0.1355
     50 H6         -0.2734   -3.0276    4.2582 H         1 <0>         0.1845
     51 H7         -0.4845    0.5061    4.9310 H         1 <0>         0.4194
     52 H8          3.0352   -4.4619    4.5093 H         1 <0>         0.1299
     53 H9          5.2348   -4.4037    5.5975 H         1 <0>         0.1319
     54 H10         5.9558   -2.4084    6.8416 H         1 <0>         0.1334
     55 H11         4.4823   -0.4485    7.0084 H         1 <0>         0.1260
     56 H12         1.0771    1.8093    4.5374 H         1 <0>         0.1450
     57 H13         2.5595    2.3960    9.1112 H         1 <0>         0.2110
     58 H14         0.6656    4.2144    4.5315 H         1 <0>         0.4154
     59 H15         0.9642    5.1823    5.8720 H         1 <0>         0.4156
     60 H16        -1.5123   -5.1663    3.7218 H         1 <0>         0.4172
     61 H17        -3.3954   -7.1268   -0.1465 H         1 <0>         0.1608
     62 H18         0.1921  -10.1851    1.7700 H         1 <0>         0.0637
     63 H19        -0.3223  -11.6710    2.6040 H         1 <0>         0.0774
     64 H20        -1.2287  -11.0857    1.1884 H         1 <0>         0.0932
     65 H21        -1.4207   -8.9434    4.8868 H         1 <0>         0.0740
     66 H22        -0.4344  -10.4200    4.7638 H         1 <0>         0.0794
     67 H23         0.0800   -8.9340    3.9298 H         1 <0>         0.0706
     68 H24        -3.2655  -11.1997    2.5303 H         1 <0>         0.0642
     69 H25        -2.4389  -11.6179    4.0502 H         1 <0>         0.0882
     70 H26        -3.4750  -10.1729    3.9691 H         1 <0>         0.0706
     71 H27        -3.2011  -10.8254    0.8955 H         1 <0>         0.1055
     72 H28        -3.8045   -9.7760   -0.4095 H         1 <0>         0.0767
     73 H29        -2.3660   -9.2181   -2.2621 H         1 <0>         0.0668
     74 H30        -1.3614   -8.3431   -1.0809 H         1 <0>         0.1282
     75 H31        -0.0680   -8.9061   -3.1274 H         1 <0>         0.1371
     76 H32         0.5887   -9.7368   -1.6967 H         1 <0>         0.1365
     77 H33        -0.8477  -12.9648   -2.5098 H         1 <0>         0.1375
     78 H34         0.1433  -12.0555   -1.3439 H         1 <0>         0.1374
     79 H35        -2.1422  -12.4077   -0.4625 H         1 <0>         0.1251
     80 H36        -2.8249  -11.6069   -1.8986 H         1 <0>         0.0667
     81 H37         1.5920  -11.3776   -3.1410 H         1 <0>         0.1228
     82 H38         0.5823  -12.2771   -4.2985 H         1 <0>         0.1246
     83 H39         0.9138  -10.5483   -4.5625 H         1 <0>         0.1247
     84 H40        -1.2603  -10.9082   -3.6529 H         1 <0>         0.4233
@<TRIPOS>BOND
     1    1    2 1
     2    1   45 1
     3    1   46 1
     4    1   47 1
     5    2    7 ar
     6    2    3 ar
     7    3    4 ar
     8    3   48 1
     9    4    5 ar
    10    4   49 1
    11    5    6 ar
    12    5   25 1
    13    6    7 ar
    14    6   50 1
    15    7    8 1
    16    8    9 1
    17    8   51 1
    18    9   17 1
    19    9   10 2
    20   10   11 1
    21   11   16 ar
    22   11   12 ar
    23   12   13 ar
    24   12   52 1
    25   13   14 ar
    26   13   53 1
    27   14   15 ar
    28   14   54 1
    29   15   16 ar
    30   15   55 1
    31   16   17 1
    32   17   18 1
    33   18   23 ar
    34   18   19 ar
    35   19   20 ar
    36   19   56 1
    37   20   21 ar
    38   20   24 1
    39   21   22 ar
    40   22   23 ar
    41   22   57 1
    42   24   58 1
    43   24   59 1
    44   25   26 am
    45   25   60 1
    46   26   27 2
    47   26   28 1
    48   28   32 2
    49   28   29 1
    50   29   30 2
    51   29   61 1
    52   30   31 1
    53   30   37 1
    54   31   32 1
    55   31   33 1
    56   33   34 1
    57   33   35 1
    58   33   36 1
    59   34   62 1
    60   34   63 1
    61   34   64 1
    62   35   65 1
    63   35   66 1
    64   35   67 1
    65   36   68 1
    66   36   69 1
    67   36   70 1
    68   37   38 1
    69   37   71 1
    70   37   72 1
    71   38   43 1
    72   38   39 1
    73   39   40 1
    74   39   73 1
    75   39   74 1
    76   40   41 1
    77   40   75 1
    78   40   76 1
    79   41   42 1
    80   41   44 1
    81   41   84 1
    82   42   43 1
    83   42   77 1
    84   42   78 1
    85   43   79 1
    86   43   80 1
    87   44   81 1
    88   44   82 1
    89   44   83 1
@<TRIPOS>MOLECULE
CHEMBL1075628__1
   85    90     0     0     0
SMALL
USER_CHARGES

@<TRIPOS>ATOM
      1 C1          3.4786   -1.5144   -1.9970 C.3       1 <0>        -0.1245
      2 C2          2.0042   -1.4817   -1.6866 C.ar      1 <0>        -0.0719
      3 C3          1.1058   -2.0949   -2.5386 C.ar      1 <0>        -0.0777
      4 C4         -0.2465   -2.0668   -2.2579 C.ar      1 <0>        -0.0837
      5 C5         -0.7076   -1.4216   -1.1167 C.ar      1 <0>         0.1658
      6 C6          0.1918   -0.8052   -0.2588 C.ar      1 <0>        -0.1417
      7 C7          1.5504   -0.8398   -0.5410 C.ar      1 <0>         0.0967
      8 N1          2.4605   -0.2244    0.3235 N.pl3     1 <0>        -0.6273
      9 C8          2.4911   -0.5763    1.6574 C.cat     1 <0>         0.6512
     10 N2          2.1567   -1.7487    2.1343 N.pl3     1 <0>        -0.5105
     11 C9          2.3040   -1.7528    3.4856 C.ar      1 <0>         0.0575
     12 C10         2.0921   -2.7210    4.4702 C.ar      1 <0>        -0.0803
     13 C11         2.3366   -2.4182    5.7911 C.ar      1 <0>        -0.0767
     14 C12         2.7915   -1.1587    6.1519 C.ar      1 <0>        -0.0742
     15 C13         3.0057   -0.1915    5.1912 C.ar      1 <0>        -0.0638
     16 C14         2.7651   -0.4792    3.8568 C.ar      1 <0>         0.0908
     17 N3          2.8816    0.2469    2.6801 N.pl3     1 <0>        -0.4017
     18 C15         3.3117    1.5672    2.5615 C.ar      1 <0>         0.4120
     19 C16         3.0846    2.2799    1.3900 C.ar      1 <0>        -0.3231
     20 C17         3.5339    3.5962    1.3212 C.ar      1 <0>         0.4817
     21 N4          4.1603    4.1205    2.3725 N.ar      1 <0>        -0.5628
     22 C18         4.3559    3.4112    3.4652 C.ar      1 <0>         0.3989
     23 N5          3.9408    2.1652    3.5702 N.ar      1 <0>        -0.5649
     24 N6          3.3324    4.3492    0.1750 N.pl3     1 <0>        -0.8144
     25 N7         -2.0769   -1.3933   -0.8335 N.am      1 <0>        -0.6682
     26 C19        -2.8228   -2.5031   -1.0015 C.2       1 <0>         0.6131
     27 O1         -2.3024   -3.5333   -1.3836 O.2       1 <0>        -0.5065
     28 C20        -4.2724   -2.4679   -0.7213 C.2       1 <0>        -0.0291
     29 C21        -5.1804   -3.5463   -0.8443 C.2       1 <0>        -0.1665
     30 C22        -6.3859   -3.0473   -0.4839 C.2       1 <0>         0.0156
     31 N8         -6.2020   -1.7479   -0.1657 N.pl3     1 <0>        -0.2429
     32 N9         -4.9656   -1.4274   -0.3036 N.2       1 <0>        -0.2414
     33 C23        -7.2592   -0.8364    0.2788 C.3       1 <0>         0.1639
     34 C24        -8.0379   -1.4803    1.4278 C.3       1 <0>        -0.1652
     35 C25        -6.6337    0.4749    0.7585 C.3       1 <0>        -0.1498
     36 C26        -8.2103   -0.5519   -0.8854 C.3       1 <0>        -0.1660
     37 C27        -7.6901   -3.8012   -0.4449 C.3       1 <0>         0.1176
     38 N10        -7.8534   -4.4294    0.8730 N.3       1 <0>        -0.5364
     39 C28        -6.8440   -5.4761    1.0862 C.3       1 <0>         0.0188
     40 C29        -7.0106   -6.0628    2.4897 C.3       1 <0>        -0.0009
     41 N11        -8.3605   -6.6248    2.6286 N.4       1 <0>        -0.3885
     42 C30        -9.3570   -5.5627    2.4373 C.3       1 <0>        -0.0020
     43 C31        -9.2099   -4.9719    1.0334 C.3       1 <0>         0.0218
     44 C32        -8.5139   -7.2039    3.9699 C.3       1 <0>        -0.0462
     45 H1          3.9257   -2.3993   -1.5441 H         1 <0>         0.0831
     46 H2          3.6218   -1.5473   -3.0771 H         1 <0>         0.0879
     47 H3          3.9546   -0.6203   -1.5944 H         1 <0>         0.0632
     48 H4          1.4615   -2.5970   -3.4261 H         1 <0>         0.1493
     49 H5         -0.9462   -2.5465   -2.9262 H         1 <0>         0.1457
     50 H6         -0.1640   -0.3032    0.6287 H         1 <0>         0.1327
     51 H7          3.0705    0.4499   -0.0143 H         1 <0>         0.4440
     52 H8          1.7373   -3.7037    4.1964 H         1 <0>         0.1517
     53 H9          2.1726   -3.1671    6.5519 H         1 <0>         0.1566
     54 H10         2.9789   -0.9333    7.1913 H         1 <0>         0.1579
     55 H11         3.3596    0.7876    5.4784 H         1 <0>         0.1636
     56 H12         2.5733    1.8246    0.5547 H         1 <0>         0.1507
     57 H13         4.8675    3.8656    4.3008 H         1 <0>         0.2231
     58 H14         2.8754    3.9599   -0.5870 H         1 <0>         0.4183
     59 H15         3.6484    5.2654    0.1348 H         1 <0>         0.4232
     60 H16        -2.4897   -0.5748   -0.5163 H         1 <0>         0.4210
     61 H17        -4.9582   -4.5552   -1.1594 H         1 <0>         0.1623
     62 H18        -7.3603   -1.6829    2.2572 H         1 <0>         0.0654
     63 H19        -8.8245   -0.8021    1.7586 H         1 <0>         0.0828
     64 H20        -8.4835   -2.4145    1.0861 H         1 <0>         0.0868
     65 H21        -6.0790    0.9337   -0.0600 H         1 <0>         0.0736
     66 H22        -7.4203    1.1531    1.0893 H         1 <0>         0.0829
     67 H23        -5.9562    0.2723    1.5879 H         1 <0>         0.0676
     68 H24        -8.7333   -1.4681   -1.1595 H         1 <0>         0.0659
     69 H25        -8.9354    0.2047   -0.5857 H         1 <0>         0.0915
     70 H26        -7.6396   -0.1896   -1.7405 H         1 <0>         0.0713
     71 H27        -8.5145   -3.1107   -0.6229 H         1 <0>         0.1075
     72 H28        -7.6880   -4.5711   -1.2166 H         1 <0>         0.0785
     73 H29        -6.9750   -6.2642    0.3447 H         1 <0>         0.0673
     74 H30        -5.8474   -5.0458    0.9879 H         1 <0>         0.1258
     75 H31        -6.2719   -6.8492    2.6448 H         1 <0>         0.1367
     76 H32        -6.8660   -5.2772    3.2314 H         1 <0>         0.1353
     77 H33       -10.3579   -5.9784    2.5535 H         1 <0>         0.1397
     78 H34        -9.2004   -4.7797    3.1793 H         1 <0>         0.1375
     79 H35        -9.9394   -4.1736    0.8965 H         1 <0>         0.1261
     80 H36        -9.3799   -5.7516    0.2910 H         1 <0>         0.0683
     81 H37        -8.3645   -6.4275    4.7201 H         1 <0>         0.1227
     82 H38        -9.5157   -7.6210    4.0731 H         1 <0>         0.1264
     83 H39        -7.7754   -7.9930    4.1115 H         1 <0>         0.1251
     84 H40        -8.4983   -7.3439    1.9344 H         1 <0>         0.4243
     85 H41         1.8499   -2.5006    1.6038 H         1 <0>         0.4606
@<TRIPOS>BOND
     1    1    2 1
     2    1   45 1
     3    1   46 1
     4    1   47 1
     5    2    7 ar
     6    2    3 ar
     7    3    4 ar
     8    3   48 1
     9    4    5 ar
    10    4   49 1
    11    5    6 ar
    12    5   25 1
    13    6    7 ar
    14    6   50 1
    15    7    8 1
    16    8    9 1
    17    8   51 1
    18    9   17 1
    19    9   10 2
    20   10   11 1
    21   10   85 1
    22   11   16 ar
    23   11   12 ar
    24   12   13 ar
    25   12   52 1
    26   13   14 ar
    27   13   53 1
    28   14   15 ar
    29   14   54 1
    30   15   16 ar
    31   15   55 1
    32   16   17 1
    33   17   18 1
    34   18   23 ar
    35   18   19 ar
    36   19   20 ar
    37   19   56 1
    38   20   21 ar
    39   20   24 1
    40   21   22 ar
    41   22   23 ar
    42   22   57 1
    43   24   58 1
    44   24   59 1
    45   25   26 am
    46   25   60 1
    47   26   27 2
    48   26   28 1
    49   28   32 2
    50   28   29 1
    51   29   30 2
    52   29   61 1
    53   30   31 1
    54   30   37 1
    55   31   32 1
    56   31   33 1
    57   33   34 1
    58   33   35 1
    59   33   36 1
    60   34   62 1
    61   34   63 1
    62   34   64 1
    63   35   65 1
    64   35   66 1
    65   35   67 1
    66   36   68 1
    67   36   69 1
    68   36   70 1
    69   37   38 1
    70   37   71 1
    71   37   72 1
    72   38   43 1
    73   38   39 1
    74   39   40 1
    75   39   73 1
    76   39   74 1
    77   40   41 1
    78   40   75 1
    79   40   76 1
    80   41   42 1
    81   41   44 1
    82   41   84 1
    83   42   43 1
    84   42   77 1
    85   42   78 1
    86   43   79 1
    87   43   80 1
    88   44   81 1
    89   44   82 1
    90   44   83 1
@<TRIPOS>MOLECULE
CHEMBL29566
   61    65     0     0     0
SMALL
USER_CHARGES

@<TRIPOS>ATOM
      1 C1          0.1199    0.9011    3.4907 C.3       1 <0>        -0.1217
      2 C2          0.2213   -0.5475    3.0875 C.2       1 <0>         0.1309
      3 C3         -0.7443   -1.3968    3.4747 C.2       1 <0>        -0.1534
      4 C4         -0.6601   -2.8067    3.0905 C.ar      1 <0>         0.0281
      5 C5         -1.6391   -3.7318    3.4673 C.ar      1 <0>        -0.1307
      6 C6         -1.5309   -5.0372    3.0932 C.ar      1 <0>        -0.0292
      7 C7         -0.4414   -5.4761    2.3265 C.ar      1 <0>         0.0623
      8 C8          0.5528   -4.5678    1.9358 C.ar      1 <0>         0.1032
      9 C9          0.4472   -3.2254    2.3177 C.ar      1 <0>        -0.1405
     10 C10         1.4503   -2.2277    1.9428 C.2       1 <0>         0.5466
     11 N1          1.2892   -0.9490    2.3365 N.am      1 <0>        -0.6216
     12 O1          2.4189   -2.5491    1.2773 O.2       1 <0>        -0.5411
     13 N2          1.4727   -5.2905    1.2054 N.pl3     1 <0>        -0.4914
     14 C11         1.0354   -6.5840    1.1660 C.2       1 <0>         0.5357
     15 N3         -0.0904   -6.6904    1.8261 N.2       1 <0>        -0.5138
     16 N4          1.6829   -7.6225    0.5267 N.pl3     1 <0>        -0.6564
     17 C12         1.1976   -8.9294    0.6470 C.ar      1 <0>         0.1770
     18 C13        -0.0020   -9.2852    0.0425 C.ar      1 <0>        -0.0095
     19 C14        -0.4781  -10.5773    0.1631 C.ar      1 <0>        -0.0998
     20 C15         0.2377  -11.5152    0.8841 C.ar      1 <0>        -0.0903
     21 C16         1.4316  -11.1646    1.4874 C.ar      1 <0>        -0.1003
     22 C17         1.9168   -9.8760    1.3664 C.ar      1 <0>        -0.0283
     23 Cl1         3.4196   -9.4391    2.1177 Cl        1 <0>        -0.0489
     24 Cl2        -0.9018   -8.1084   -0.8626 Cl        1 <0>        -0.0388
     25 C18         2.6930   -4.7676    0.5861 C.3       1 <0>         0.0860
     26 C19        -1.9052   -0.9022    4.2987 C.3       1 <0>        -0.0620
     27 C20        -3.0788   -0.5664    3.3763 C.3       1 <0>        -0.1124
     28 C21        -4.2574   -0.0643    4.2128 C.3       1 <0>         0.0544
     29 N5         -5.3843    0.2581    3.3273 N.3       1 <0>        -0.5371
     30 C22        -5.0642    1.4036    2.4631 C.3       1 <0>         0.0152
     31 C23        -6.2394    1.6670    1.5179 C.3       1 <0>         0.0618
     32 O2         -7.4247    1.8844    2.2882 O.3       1 <0>        -0.3859
     33 C24        -7.7663    0.7883    3.1409 C.3       1 <0>         0.0623
     34 C25        -6.6065    0.5160    4.1025 C.3       1 <0>         0.0175
     35 H1          0.9745    1.4493    3.0943 H         1 <0>         0.0709
     36 H2         -0.8012    1.3257    3.0914 H         1 <0>         0.0878
     37 H3          0.1128    0.9759    4.5781 H         1 <0>         0.0900
     38 H4         -2.4842   -3.4099    4.0577 H         1 <0>         0.1397
     39 H5         -2.2927   -5.7426    3.3908 H         1 <0>         0.1349
     40 H6          2.4743   -7.4461   -0.0058 H         1 <0>         0.4211
     41 H7         -1.4105  -10.8545   -0.3062 H         1 <0>         0.1446
     42 H8         -0.1367  -12.5240    0.9767 H         1 <0>         0.1461
     43 H9          1.9878  -11.8998    2.0501 H         1 <0>         0.1447
     44 H10         3.4314   -4.5568    1.3597 H         1 <0>         0.0771
     45 H11         3.0941   -5.5069   -0.1072 H         1 <0>         0.0638
     46 H12         2.4615   -3.8501    0.0450 H         1 <0>         0.1130
     47 H13        -2.2070   -1.6772    5.0032 H         1 <0>         0.0790
     48 H14        -1.6069   -0.0087    4.8471 H         1 <0>         0.0757
     49 H15        -2.7771    0.2086    2.6718 H         1 <0>         0.0627
     50 H16        -3.3771   -1.4599    2.8279 H         1 <0>         0.0771
     51 H17        -4.5592   -0.8393    4.9174 H         1 <0>         0.0782
     52 H18        -3.9591    0.8292    4.7613 H         1 <0>         0.0357
     53 H19        -4.8873    2.2856    3.0785 H         1 <0>         0.0425
     54 H20        -4.1708    1.1809    1.8797 H         1 <0>         0.0884
     55 H21        -6.0303    2.5503    0.9145 H         1 <0>         0.0975
     56 H22        -6.3822    0.8053    0.8657 H         1 <0>         0.0602
     57 H23        -8.6615    1.0361    3.7113 H         1 <0>         0.0984
     58 H24        -7.9535   -0.0989    2.5359 H         1 <0>         0.0605
     59 H25        -6.8390   -0.3546    4.7158 H         1 <0>         0.0873
     60 H26        -6.4543    1.3838    4.7441 H         1 <0>         0.0428
     61 H27         1.9560   -0.2924    2.0811 H         1 <0>         0.4125
@<TRIPOS>BOND
     1    1    2 1
     2    1   35 1
     3    1   36 1
     4    1   37 1
     5    2   11 1
     6    2    3 2
     7    3    4 1
     8    3   26 1
     9    4    9 ar
    10    4    5 ar
    11    5    6 ar
    12    5   38 1
    13    6    7 ar
    14    6   39 1
    15    7   15 1
    16    7    8 ar
    17    8    9 ar
    18    8   13 1
    19    9   10 1
    20   10   11 am
    21   10   12 2
    22   11   61 1
    23   13   14 1
    24   13   25 1
    25   14   15 2
    26   14   16 1
    27   16   17 1
    28   16   40 1
    29   17   22 ar
    30   17   18 ar
    31   18   19 ar
    32   18   24 1
    33   19   20 ar
    34   19   41 1
    35   20   21 ar
    36   20   42 1
    37   21   22 ar
    38   21   43 1
    39   22   23 1
    40   25   44 1
    41   25   45 1
    42   25   46 1
    43   26   27 1
    44   26   47 1
    45   26   48 1
    46   27   28 1
    47   27   49 1
    48   27   50 1
    49   28   29 1
    50   28   51 1
    51   28   52 1
    52   29   34 1
    53   29   30 1
    54   30   31 1
    55   30   53 1
    56   30   54 1
    57   31   32 1
    58   31   55 1
    59   31   56 1
    60   32   33 1
    61   33   34 1
    62   33   57 1
    63   33   58 1
    64   34   59 1
    65   34   60 1
@<TRIPOS>MOLECULE
CHEMBL29566__1
   62    66     0     0     0
SMALL
USER_CHARGES

@<TRIPOS>ATOM
      1 C1          0.1199    0.9011    3.4907 C.3       1 <0>        -0.1262
      2 C2          0.2213   -0.5475    3.0875 C.2       1 <0>         0.1487
      3 C3         -0.7443   -1.3968    3.4747 C.2       1 <0>        -0.1755
      4 C4         -0.6601   -2.8067    3.0905 C.ar      1 <0>         0.0192
      5 C5         -1.6391   -3.7318    3.4673 C.ar      1 <0>        -0.1416
      6 C6         -1.5309   -5.0372    3.0932 C.ar      1 <0>        -0.0269
      7 C7         -0.4414   -5.4761    2.3265 C.ar      1 <0>         0.0674
      8 C8          0.5528   -4.5678    1.9358 C.ar      1 <0>         0.1036
      9 C9          0.4472   -3.2254    2.3177 C.ar      1 <0>        -0.1346
     10 C10         1.4503   -2.2277    1.9428 C.2       1 <0>         0.5457
     11 N1          1.2892   -0.9490    2.3365 N.am      1 <0>        -0.6239
     12 O1          2.4189   -2.5491    1.2773 O.2       1 <0>        -0.5272
     13 N2          1.4727   -5.2905    1.2054 N.pl3     1 <0>        -0.4917
     14 C11         1.0354   -6.5840    1.1660 C.2       1 <0>         0.5462
     15 N3         -0.0904   -6.6904    1.8261 N.2       1 <0>        -0.5151
     16 N4          1.6829   -7.6225    0.5267 N.pl3     1 <0>        -0.6534
     17 C12         1.1976   -8.9294    0.6470 C.ar      1 <0>         0.1711
     18 C13        -0.0020   -9.2852    0.0425 C.ar      1 <0>        -0.0085
     19 C14        -0.4781  -10.5773    0.1631 C.ar      1 <0>        -0.0995
     20 C15         0.2377  -11.5152    0.8841 C.ar      1 <0>        -0.0869
     21 C16         1.4316  -11.1646    1.4874 C.ar      1 <0>        -0.0984
     22 C17         1.9168   -9.8760    1.3664 C.ar      1 <0>        -0.0272
     23 Cl1         3.4196   -9.4391    2.1177 Cl        1 <0>        -0.0464
     24 Cl2        -0.9018   -8.1084   -0.8626 Cl        1 <0>        -0.0427
     25 C18         2.6930   -4.7676    0.5861 C.3       1 <0>         0.0830
     26 C19        -1.9052   -0.9022    4.2987 C.3       1 <0>        -0.0536
     27 C20        -3.0788   -0.5664    3.3763 C.3       1 <0>        -0.1494
     28 C21        -4.2574   -0.0643    4.2128 C.3       1 <0>        -0.0114
     29 N5         -5.3843    0.2581    3.3273 N.4       1 <0>        -0.3860
     30 C22        -5.0177    1.3849    2.4583 C.3       1 <0>        -0.0480
     31 C23        -6.1933    1.7187    1.5365 C.3       1 <0>         0.0354
     32 O2         -7.3441    2.0204    2.3304 O.3       1 <0>        -0.3568
     33 C24        -7.7268    0.9610    3.2120 C.3       1 <0>         0.0349
     34 C25        -6.5541    0.6258    4.1369 C.3       1 <0>        -0.0432
     35 H1          0.9745    1.4493    3.0943 H         1 <0>         0.0770
     36 H2         -0.8012    1.3257    3.0914 H         1 <0>         0.0838
     37 H3          0.1128    0.9759    4.5781 H         1 <0>         0.0932
     38 H4         -2.4842   -3.4099    4.0577 H         1 <0>         0.1328
     39 H5         -2.2927   -5.7426    3.3908 H         1 <0>         0.1355
     40 H6          2.4743   -7.4461   -0.0058 H         1 <0>         0.4229
     41 H7         -1.4105  -10.8545   -0.3062 H         1 <0>         0.1456
     42 H8         -0.1367  -12.5240    0.9767 H         1 <0>         0.1482
     43 H9          1.9878  -11.8998    2.0501 H         1 <0>         0.1469
     44 H10         3.4314   -4.5568    1.3597 H         1 <0>         0.0797
     45 H11         3.0941   -5.5069   -0.1072 H         1 <0>         0.0684
     46 H12         2.4615   -3.8501    0.0450 H         1 <0>         0.1130
     47 H13        -2.2070   -1.6772    5.0032 H         1 <0>         0.0888
     48 H14        -1.6069   -0.0087    4.8471 H         1 <0>         0.0865
     49 H15        -2.7771    0.2086    2.6718 H         1 <0>         0.0871
     50 H16        -3.3771   -1.4599    2.8279 H         1 <0>         0.0929
     51 H17        -4.5592   -0.8393    4.9174 H         1 <0>         0.1353
     52 H18        -3.9591    0.8292    4.7613 H         1 <0>         0.1319
     53 H19        -4.7781    2.2538    3.0712 H         1 <0>         0.1394
     54 H20        -4.1500    1.1132    1.8571 H         1 <0>         0.1429
     55 H21        -5.9394    2.5816    0.9208 H         1 <0>         0.1411
     56 H22        -6.4073    0.8636    0.8953 H         1 <0>         0.0810
     57 H23        -8.5828    1.2756    3.8090 H         1 <0>         0.1419
     58 H24        -7.9933    0.0800    2.6282 H         1 <0>         0.0813
     59 H25        -6.8269   -0.2095    4.7819 H         1 <0>         0.1433
     60 H26        -6.3139    1.4950    4.7492 H         1 <0>         0.1389
     61 H27         1.9560   -0.2924    2.0811 H         1 <0>         0.4160
     62 H28        -5.6070   -0.5459    2.7599 H         1 <0>         0.4237
@<TRIPOS>BOND
     1    1    2 1
     2    1   35 1
     3    1   36 1
     4    1   37 1
     5    2   11 1
     6    2    3 2
     7    3    4 1
     8    3   26 1
     9    4    9 ar
    10    4    5 ar
    11    5    6 ar
    12    5   38 1
    13    6    7 ar
    14    6   39 1
    15    7   15 1
    16    7    8 ar
    17    8    9 ar
    18    8   13 1
    19    9   10 1
    20   10   11 am
    21   10   12 2
    22   11   61 1
    23   13   14 1
    24   13   25 1
    25   14   15 2
    26   14   16 1
    27   16   17 1
    28   16   40 1
    29   17   22 ar
    30   17   18 ar
    31   18   19 ar
    32   18   24 1
    33   19   20 ar
    34   19   41 1
    35   20   21 ar
    36   20   42 1
    37   21   22 ar
    38   21   43 1
    39   22   23 1
    40   25   44 1
    41   25   45 1
    42   25   46 1
    43   26   27 1
    44   26   47 1
    45   26   48 1
    46   27   28 1
    47   27   49 1
    48   27   50 1
    49   28   29 1
    50   28   51 1
    51   28   52 1
    52   29   34 1
    53   29   30 1
    54   29   62 1
    55   30   31 1
    56   30   53 1
    57   30   54 1
    58   31   32 1
    59   31   55 1
    60   31   56 1
    61   32   33 1
    62   33   34 1
    63   33   57 1
    64   33   58 1
    65   34   59 1
    66   34   60 1
@<TRIPOS>MOLECULE
CHEMBL259465
   68    71     0     0     0
SMALL
USER_CHARGES

@<TRIPOS>ATOM
      1 C1         -0.2045    1.6189   -0.1852 C.3       1 <0>        -0.1304
      2 C2         -0.0962    0.1177   -0.1107 C.ar      1 <0>        -0.0251
      3 C3         -0.2055   -0.6400   -1.2591 C.ar      1 <0>        -0.1090
      4 C4         -0.1070   -2.0171   -1.1961 C.ar      1 <0>        -0.1050
      5 C5          0.1029   -2.6485    0.0244 C.ar      1 <0>         0.1292
      6 C6          0.2140   -1.8967    1.1836 C.ar      1 <0>        -0.0797
      7 C7          0.1203   -0.5063    1.1191 C.ar      1 <0>        -0.1246
      8 C8          0.2437    0.3033    2.3499 C.2       1 <0>         0.5643
      9 O1          0.0847    1.5076    2.3039 O.2       1 <0>        -0.5120
     10 N1          0.5326   -0.2939    3.5231 N.am      1 <0>        -0.6518
     11 C9          0.7603    0.4827    4.6674 C.ar      1 <0>        -0.0213
     12 C10         1.2320    1.7878    4.5604 C.ar      1 <0>         0.1950
     13 N2          1.4352    2.4908    5.6622 N.ar      1 <0>        -0.5500
     14 C11         1.1957    1.9673    6.8549 C.ar      1 <0>         0.5484
     15 N3          0.7466    0.7292    6.9948 N.ar      1 <0>        -0.5474
     16 C12         0.5147   -0.0309    5.9375 C.ar      1 <0>         0.1728
     17 N4          1.4214    2.7352    7.9867 N.pl3     1 <0>        -0.6988
     18 C13         1.1628    2.1751    9.3155 C.3       1 <0>         0.1401
     19 C14         1.4910    3.2213   10.3826 C.3       1 <0>        -0.1301
     20 C15         1.2209    2.6363   11.7703 C.3       1 <0>         0.0600
     21 N5          1.5360    3.6408   12.7949 N.3       1 <0>        -0.5375
     22 C16         2.9764    3.9335   12.8203 C.3       1 <0>         0.0134
     23 C17         3.2516    5.0253   13.8577 C.3       1 <0>         0.0625
     24 O2          2.7633    4.5986   15.1324 O.3       1 <0>        -0.3855
     25 C18         1.3636    4.3055   15.1440 C.3       1 <0>         0.0627
     26 C19         1.0692    3.2065   14.1196 C.3       1 <0>         0.0171
     27 N6          0.2014   -4.0426    0.0829 N.am      1 <0>        -0.6672
     28 C20        -0.2754   -4.7076    1.1538 C.2       1 <0>         0.5630
     29 O3         -0.8779   -4.1079    2.0229 O.2       1 <0>        -0.5096
     30 C21        -0.0657   -6.1660    1.2717 C.ar      1 <0>        -0.1396
     31 C22         0.6307   -6.8568    0.2783 C.ar      1 <0>        -0.0538
     32 C23         0.8228   -8.2177    0.3945 C.ar      1 <0>        -0.1228
     33 C24         0.3270   -8.8984    1.4926 C.ar      1 <0>        -0.0417
     34 C25        -0.3640   -8.2199    2.4805 C.ar      1 <0>        -0.1883
     35 C26        -0.5582   -6.8576    2.3795 C.ar      1 <0>        -0.0065
     36 C27        -0.9004   -8.9694    3.6728 C.3       1 <0>         0.5099
     37 F1         -0.5764  -10.3254    3.5556 F         1 <0>        -0.1742
     38 F2         -0.3318   -8.4535    4.8424 F         1 <0>        -0.1726
     39 F3         -2.2908   -8.8252    3.7274 F         1 <0>        -0.1723
     40 H1          0.7944    2.0546   -0.2081 H         1 <0>         0.0765
     41 H2         -0.7442    1.8998   -1.0896 H         1 <0>         0.0615
     42 H3         -0.7420    1.9883    0.6881 H         1 <0>         0.1032
     43 H4         -0.3689   -0.1551   -2.2102 H         1 <0>         0.1386
     44 H5         -0.1936   -2.6047   -2.0981 H         1 <0>         0.1342
     45 H6          0.3771   -2.3853    2.1328 H         1 <0>         0.1373
     46 H7          0.5830   -1.2612    3.5756 H         1 <0>         0.4127
     47 H8          1.4296    2.2205    3.5909 H         1 <0>         0.1842
     48 H9          0.1438   -1.0380    6.0582 H         1 <0>         0.1696
     49 H10         1.7505    3.6434    7.8988 H         1 <0>         0.4146
     50 H11         0.1125    1.8939    9.3931 H         1 <0>         0.0684
     51 H12         1.7868    1.2942    9.4662 H         1 <0>         0.0660
     52 H13         2.5412    3.5024   10.3049 H         1 <0>         0.0703
     53 H14         0.8669    4.1021   10.2318 H         1 <0>         0.0804
     54 H15         0.1707    2.3552   11.8480 H         1 <0>         0.0813
     55 H16         1.8450    1.7554   11.9210 H         1 <0>         0.0402
     56 H17         3.5266    3.0311   13.0869 H         1 <0>         0.0440
     57 H18         3.2953    4.2777   11.8364 H         1 <0>         0.0889
     58 H19         4.3248    5.2053   13.9207 H         1 <0>         0.0987
     59 H20         2.7446    5.9439   13.5626 H         1 <0>         0.0605
     60 H21         1.0712    3.9649   16.1373 H         1 <0>         0.0994
     61 H22         0.8016    5.2032   14.8863 H         1 <0>         0.0607
     62 H23        -0.0041    3.0199   14.0842 H         1 <0>         0.0880
     63 H24         1.5889    2.2924   14.4069 H         1 <0>         0.0444
     64 H25         0.6129   -4.5308   -0.6474 H         1 <0>         0.4129
     65 H26         1.0179   -6.3268   -0.5794 H         1 <0>         0.1375
     66 H27         1.3611   -8.7534   -0.3735 H         1 <0>         0.1467
     67 H28         0.4798   -9.9640    1.5785 H         1 <0>         0.1477
     68 H29        -1.0939   -6.3284    3.1537 H         1 <0>         0.1503
@<TRIPOS>BOND
     1    1    2 1
     2    1   40 1
     3    1   41 1
     4    1   42 1
     5    2    7 ar
     6    2    3 ar
     7    3    4 ar
     8    3   43 1
     9    4    5 ar
    10    4   44 1
    11    5    6 ar
    12    5   27 1
    13    6    7 ar
    14    6   45 1
    15    7    8 1
    16    8    9 2
    17    8   10 am
    18   10   11 1
    19   10   46 1
    20   11   16 ar
    21   11   12 ar
    22   12   13 ar
    23   12   47 1
    24   13   14 ar
    25   14   15 ar
    26   14   17 1
    27   15   16 ar
    28   16   48 1
    29   17   18 1
    30   17   49 1
    31   18   19 1
    32   18   50 1
    33   18   51 1
    34   19   20 1
    35   19   52 1
    36   19   53 1
    37   20   21 1
    38   20   54 1
    39   20   55 1
    40   21   26 1
    41   21   22 1
    42   22   23 1
    43   22   56 1
    44   22   57 1
    45   23   24 1
    46   23   58 1
    47   23   59 1
    48   24   25 1
    49   25   26 1
    50   25   60 1
    51   25   61 1
    52   26   62 1
    53   26   63 1
    54   27   28 am
    55   27   64 1
    56   28   29 2
    57   28   30 1
    58   30   35 ar
    59   30   31 ar
    60   31   32 ar
    61   31   65 1
    62   32   33 ar
    63   32   66 1
    64   33   34 ar
    65   33   67 1
    66   34   35 ar
    67   34   36 1
    68   35   68 1
    69   36   37 1
    70   36   38 1
    71   36   39 1
@<TRIPOS>MOLECULE
CHEMBL259465__1
   69    72     0     0     0
SMALL
USER_CHARGES

@<TRIPOS>ATOM
      1 C1         -0.2045    1.6189   -0.1852 C.3       1 <0>        -0.1305
      2 C2         -0.0962    0.1177   -0.1107 C.ar      1 <0>        -0.0240
      3 C3         -0.2055   -0.6400   -1.2591 C.ar      1 <0>        -0.1078
      4 C4         -0.1070   -2.0171   -1.1961 C.ar      1 <0>        -0.1017
      5 C5          0.1029   -2.6485    0.0244 C.ar      1 <0>         0.1307
      6 C6          0.2140   -1.8967    1.1836 C.ar      1 <0>        -0.0796
      7 C7          0.1203   -0.5063    1.1191 C.ar      1 <0>        -0.1294
      8 C8          0.2437    0.3033    2.3499 C.2       1 <0>         0.5681
      9 O1          0.0847    1.5076    2.3039 O.2       1 <0>        -0.5102
     10 N1          0.5326   -0.2939    3.5231 N.am      1 <0>        -0.6555
     11 C9          0.7603    0.4827    4.6674 C.ar      1 <0>        -0.0008
     12 C10         1.2320    1.7878    4.5604 C.ar      1 <0>         0.1932
     13 N2          1.4352    2.4908    5.6622 N.ar      1 <0>        -0.5436
     14 C11         1.1957    1.9673    6.8549 C.ar      1 <0>         0.5396
     15 N3          0.7466    0.7292    6.9948 N.ar      1 <0>        -0.5477
     16 C12         0.5147   -0.0309    5.9375 C.ar      1 <0>         0.1682
     17 N4          1.4214    2.7352    7.9867 N.pl3     1 <0>        -0.7080
     18 C13         1.1628    2.1751    9.3155 C.3       1 <0>         0.1465
     19 C14         1.4910    3.2213   10.3826 C.3       1 <0>        -0.1650
     20 C15         1.2209    2.6363   11.7703 C.3       1 <0>        -0.0039
     21 N5          1.5360    3.6408   12.7949 N.4       1 <0>        -0.3852
     22 C16         2.9762    3.9309   12.7700 C.3       1 <0>        -0.0491
     23 C17         3.3019    4.9779   13.8382 C.3       1 <0>         0.0361
     24 O2          2.8860    4.4915   15.1174 O.3       1 <0>        -0.3565
     25 C18         1.4935    4.1717   15.1847 C.3       1 <0>         0.0355
     26 C19         1.1645    3.1232   14.1190 C.3       1 <0>        -0.0434
     27 N6          0.2014   -4.0426    0.0829 N.am      1 <0>        -0.6674
     28 C20        -0.2754   -4.7076    1.1538 C.2       1 <0>         0.5651
     29 O3         -0.8779   -4.1079    2.0229 O.2       1 <0>        -0.5128
     30 C21        -0.0657   -6.1660    1.2717 C.ar      1 <0>        -0.1417
     31 C22         0.6307   -6.8568    0.2783 C.ar      1 <0>        -0.0533
     32 C23         0.8228   -8.2177    0.3945 C.ar      1 <0>        -0.1216
     33 C24         0.3270   -8.8984    1.4926 C.ar      1 <0>        -0.0403
     34 C25        -0.3640   -8.2199    2.4805 C.ar      1 <0>        -0.1886
     35 C26        -0.5582   -6.8576    2.3795 C.ar      1 <0>        -0.0068
     36 C27        -0.9004   -8.9694    3.6728 C.3       1 <0>         0.5101
     37 F1         -0.5764  -10.3254    3.5556 F         1 <0>        -0.1731
     38 F2         -0.3318   -8.4535    4.8424 F         1 <0>        -0.1740
     39 F3         -2.2908   -8.8252    3.7274 F         1 <0>        -0.1721
     40 H1          0.7944    2.0546   -0.2081 H         1 <0>         0.0767
     41 H2         -0.7442    1.8998   -1.0896 H         1 <0>         0.0634
     42 H3         -0.7420    1.9883    0.6881 H         1 <0>         0.1017
     43 H4         -0.3689   -0.1551   -2.2102 H         1 <0>         0.1403
     44 H5         -0.1936   -2.6047   -2.0981 H         1 <0>         0.1362
     45 H6          0.3771   -2.3853    2.1328 H         1 <0>         0.1366
     46 H7          0.5830   -1.2612    3.5756 H         1 <0>         0.4154
     47 H8          1.4296    2.2205    3.5909 H         1 <0>         0.1884
     48 H9          0.1438   -1.0380    6.0582 H         1 <0>         0.1735
     49 H10         1.7505    3.6434    7.8988 H         1 <0>         0.4152
     50 H11         0.1125    1.8939    9.3931 H         1 <0>         0.0762
     51 H12         1.7868    1.2942    9.4662 H         1 <0>         0.0760
     52 H13         2.5412    3.5024   10.3049 H         1 <0>         0.0946
     53 H14         0.8669    4.1021   10.2318 H         1 <0>         0.0956
     54 H15         0.1707    2.3552   11.8480 H         1 <0>         0.1382
     55 H16         1.8450    1.7554   11.9210 H         1 <0>         0.1359
     56 H17         3.5348    3.0174   12.9740 H         1 <0>         0.1404
     57 H18         3.2528    4.3150   11.7881 H         1 <0>         0.1432
     58 H19         4.3760    5.1631   13.8508 H         1 <0>         0.1422
     59 H20         2.7747    5.9047   13.6122 H         1 <0>         0.0814
     60 H21         1.2588    3.7734   16.1718 H         1 <0>         0.1427
     61 H22         0.9044    5.0709   15.0047 H         1 <0>         0.0815
     62 H23         0.0962    2.9078   14.1386 H         1 <0>         0.1439
     63 H24         1.7237    2.2100   14.3225 H         1 <0>         0.1401
     64 H25         0.6129   -4.5308   -0.6474 H         1 <0>         0.4141
     65 H26         1.0179   -6.3268   -0.5794 H         1 <0>         0.1377
     66 H27         1.3611   -8.7534   -0.3735 H         1 <0>         0.1478
     67 H28         0.4798   -9.9640    1.5785 H         1 <0>         0.1486
     68 H29        -1.0939   -6.3284    3.1537 H         1 <0>         0.1494
     69 H30         1.0189    4.4866   12.6070 H         1 <0>         0.4235
@<TRIPOS>BOND
     1    1    2 1
     2    1   40 1
     3    1   41 1
     4    1   42 1
     5    2    7 ar
     6    2    3 ar
     7    3    4 ar
     8    3   43 1
     9    4    5 ar
    10    4   44 1
    11    5    6 ar
    12    5   27 1
    13    6    7 ar
    14    6   45 1
    15    7    8 1
    16    8    9 2
    17    8   10 am
    18   10   11 1
    19   10   46 1
    20   11   16 ar
    21   11   12 ar
    22   12   13 ar
    23   12   47 1
    24   13   14 ar
    25   14   15 ar
    26   14   17 1
    27   15   16 ar
    28   16   48 1
    29   17   18 1
    30   17   49 1
    31   18   19 1
    32   18   50 1
    33   18   51 1
    34   19   20 1
    35   19   52 1
    36   19   53 1
    37   20   21 1
    38   20   54 1
    39   20   55 1
    40   21   26 1
    41   21   22 1
    42   21   69 1
    43   22   23 1
    44   22   56 1
    45   22   57 1
    46   23   24 1
    47   23   58 1
    48   23   59 1
    49   24   25 1
    50   25   26 1
    51   25   60 1
    52   25   61 1
    53   26   62 1
    54   26   63 1
    55   27   28 am
    56   27   64 1
    57   28   29 2
    58   28   30 1
    59   30   35 ar
    60   30   31 ar
    61   31   32 ar
    62   31   65 1
    63   32   33 ar
    64   32   66 1
    65   33   34 ar
    66   33   67 1
    67   34   35 ar
    68   34   36 1
    69   35   68 1
    70   36   37 1
    71   36   38 1
    72   36   39 1
@<TRIPOS>MOLECULE
CHEMBL566284
   78    84     0     0     0
SMALL
USER_CHARGES

@<TRIPOS>ATOM
      1 C1         -1.1244    1.5236   -0.3984 C.3       1 <0>        -0.1679
      2 C2         -0.8477    0.0227   -0.2901 C.3       1 <0>         0.1704
      3 H1         -1.7841   -0.5271   -0.3841 H         1 <0>         0.0982
      4 C3          0.1072   -0.4017   -1.4077 C.3       1 <0>         0.0594
      5 H2          1.0084    0.2101   -1.3680 H         1 <0>         0.0970
      6 C4         -0.5788   -0.2143   -2.7651 C.3       1 <0>         0.1012
      7 N1          0.2961   -0.7660   -3.8108 N.am      1 <0>        -0.6236
      8 C5          0.8088   -2.1337   -3.6390 C.3       1 <0>         0.0683
      9 C6          1.4402   -2.2456   -2.2472 C.3       1 <0>         0.0414
     10 N2          0.4666   -1.8155   -1.2347 N.3       1 <0>        -0.5240
     11 C7         -0.7286   -2.6692   -1.2584 C.3       1 <0>         0.0127
     12 C8          0.6189   -0.0377   -4.8979 C.2       1 <0>         0.7104
     13 O1          0.1136    1.0548   -5.0697 O.2       1 <0>        -0.5602
     14 N3          1.5017   -0.5204   -5.7946 N.am      1 <0>        -0.6746
     15 C9          1.9096    0.2724   -6.8692 C.ar      1 <0>         0.1691
     16 C10         1.7347    1.6389   -6.8308 C.ar      1 <0>        -0.1445
     17 C11         2.1372    2.4381   -7.8966 C.ar      1 <0>        -0.0882
     18 C12         2.7134    1.8948   -9.0043 C.ar      1 <0>        -0.1314
     19 C13         2.9100    0.5057   -9.0830 C.ar      1 <0>        -0.0319
     20 C14         2.5096   -0.3176   -8.0017 C.ar      1 <0>        -0.0683
     21 C15         2.7117   -1.7046   -8.0796 C.ar      1 <0>        -0.1118
     22 C16         3.2939   -2.2396   -9.1880 C.ar      1 <0>        -0.1136
     23 C17         3.6940   -1.4301  -10.2493 C.ar      1 <0>        -0.1155
     24 C18         3.5021   -0.0830  -10.2139 C.ar      1 <0>        -0.1024
     25 N4         -0.2384   -0.2690    1.0098 N.pl3     1 <0>        -0.6714
     26 C19        -1.0398   -0.4714    2.1199 C.ar      1 <0>         0.6041
     27 N5         -2.3564   -0.4030    1.9873 N.ar      1 <0>        -0.5770
     28 C20        -3.1552   -0.5914    3.0265 C.ar      1 <0>         0.2238
     29 C21        -2.6017   -0.8629    4.2642 C.ar      1 <0>        -0.3094
     30 C22        -1.2131   -0.9286    4.3720 C.ar      1 <0>         0.4491
     31 N6         -0.4719   -0.7341    3.2871 N.ar      1 <0>        -0.5907
     32 N7         -0.6116   -1.1990    5.5996 N.pl3     1 <0>        -0.4386
     33 C23        -1.2530   -1.4274    6.7821 C.2       1 <0>         0.2757
     34 N8         -0.3855   -1.6467    7.7254 N.2       1 <0>        -0.4649
     35 C24         0.8726   -1.5749    7.2165 C.ar      1 <0>         0.0359
     36 C25         0.7461   -1.2918    5.8448 C.ar      1 <0>         0.0754
     37 C26         1.8786   -1.1641    5.0517 C.ar      1 <0>        -0.0905
     38 C27         3.1206   -1.3161    5.6004 C.ar      1 <0>        -0.0742
     39 C28         3.2641   -1.6010    6.9619 C.ar      1 <0>        -0.0661
     40 C29         2.1429   -1.7246    7.7726 C.ar      1 <0>        -0.0087
     41 C30         4.6179   -1.7638    7.5437 C.ar      1 <0>         0.2696
     42 C31         5.7568   -1.5272    6.7684 C.ar      1 <0>        -0.2827
     43 C32         6.9986   -1.6915    7.3545 C.ar      1 <0>         0.1973
     44 N9          7.0721   -2.0652    8.6225 N.ar      1 <0>        -0.5765
     45 C33         5.9757   -2.2827    9.3342 C.ar      1 <0>         0.5725
     46 N10         4.7677   -2.1323    8.8141 N.ar      1 <0>        -0.5684
     47 N11         6.0966   -2.6722   10.6569 N.pl3     1 <0>        -0.8213
     48 H3         -0.1879    2.0734   -0.3045 H         1 <0>         0.0598
     49 H4         -1.5777    1.7407   -1.3656 H         1 <0>         0.0716
     50 H5         -1.8046    1.8260    0.3978 H         1 <0>         0.0680
     51 H6         -1.5324   -0.7421   -2.7694 H         1 <0>         0.0754
     52 H7         -0.7439    0.8474   -2.9484 H         1 <0>         0.1080
     53 H8         -0.0114   -2.8461   -3.7273 H         1 <0>         0.0788
     54 H9          1.5611   -2.3411   -4.4000 H         1 <0>         0.0810
     55 H10         1.7266   -3.2805   -2.0598 H         1 <0>         0.0951
     56 H11         2.3231   -1.6084   -2.1960 H         1 <0>         0.0843
     57 H12        -1.2394   -2.5529   -2.2143 H         1 <0>         0.0337
     58 H13        -0.4340   -3.7106   -1.1283 H         1 <0>         0.0711
     59 H14        -1.3994   -2.3778   -0.4502 H         1 <0>         0.0737
     60 H15         1.8538   -1.4185   -5.6934 H         1 <0>         0.4050
     61 H16         1.2799    2.0948   -5.9638 H         1 <0>         0.1611
     62 H17         1.9899    3.5067   -7.8445 H         1 <0>         0.1270
     63 H18         3.0187    2.5309   -9.8219 H         1 <0>         0.1277
     64 H19         2.4072   -2.3440   -7.2643 H         1 <0>         0.1158
     65 H20         3.4482   -3.3070   -9.2453 H         1 <0>         0.1239
     66 H21         4.1542   -1.8792  -11.1170 H         1 <0>         0.1248
     67 H22         3.8159    0.5319  -11.0444 H         1 <0>         0.1300
     68 H23         0.7267   -0.3203    1.0925 H         1 <0>         0.4178
     69 H24        -4.2272   -0.5333    2.9087 H         1 <0>         0.1780
     70 H25        -3.2307   -1.0203    5.1279 H         1 <0>         0.1501
     71 H26        -2.3248   -1.4259    6.9152 H         1 <0>         0.2246
     72 H27         1.7776   -0.9445    3.9991 H         1 <0>         0.1456
     73 H28         3.9976   -1.2158    4.9781 H         1 <0>         0.1399
     74 H29         2.2537   -1.9456    8.8240 H         1 <0>         0.1468
     75 H30         5.6689   -1.2235    5.7357 H         1 <0>         0.1473
     76 H31         7.8988   -1.5173    6.7838 H         1 <0>         0.1704
     77 H32         6.9758   -2.7825   11.0516 H         1 <0>         0.4154
     78 H33         5.3022   -2.8347   11.1892 H         1 <0>         0.4150
@<TRIPOS>BOND
     1    1    2 1
     2    1   48 1
     3    1   49 1
     4    1   50 1
     5    2    3 1
     6    2    4 1
     7    2   25 1
     8    4    5 1
     9    4   10 1
    10    4    6 1
    11    6    7 1
    12    6   51 1
    13    6   52 1
    14    7    8 1
    15    7   12 am
    16    8    9 1
    17    8   53 1
    18    8   54 1
    19    9   10 1
    20    9   55 1
    21    9   56 1
    22   10   11 1
    23   11   57 1
    24   11   58 1
    25   11   59 1
    26   12   13 2
    27   12   14 am
    28   14   15 1
    29   14   60 1
    30   15   20 ar
    31   15   16 ar
    32   16   17 ar
    33   16   61 1
    34   17   18 ar
    35   17   62 1
    36   18   19 ar
    37   18   63 1
    38   19   24 ar
    39   19   20 ar
    40   20   21 ar
    41   21   22 ar
    42   21   64 1
    43   22   23 ar
    44   22   65 1
    45   23   24 ar
    46   23   66 1
    47   24   67 1
    48   25   26 1
    49   25   68 1
    50   26   31 ar
    51   26   27 ar
    52   27   28 ar
    53   28   29 ar
    54   28   69 1
    55   29   30 ar
    56   29   70 1
    57   30   31 ar
    58   30   32 1
    59   32   36 1
    60   32   33 1
    61   33   34 2
    62   33   71 1
    63   34   35 1
    64   35   40 ar
    65   35   36 ar
    66   36   37 ar
    67   37   38 ar
    68   37   72 1
    69   38   39 ar
    70   38   73 1
    71   39   40 ar
    72   39   41 1
    73   40   74 1
    74   41   46 ar
    75   41   42 ar
    76   42   43 ar
    77   42   75 1
    78   43   44 ar
    79   43   76 1
    80   44   45 ar
    81   45   46 ar
    82   45   47 1
    83   47   77 1
    84   47   78 1
@<TRIPOS>MOLECULE
CHEMBL566284__1
   79    85     0     0     0
SMALL
USER_CHARGES

@<TRIPOS>ATOM
      1 C1          0.3003    1.6425    1.0492 C.3       1 <0>        -0.1708
      2 C2          0.2770    0.1229    0.8720 C.3       1 <0>         0.1503
      3 H1          0.7177   -0.3519    1.7486 H         1 <0>         0.1224
      4 C3         -1.1691   -0.3494    0.7089 C.3       1 <0>         0.0013
      5 H2         -1.6334    0.1817   -0.1220 H         1 <0>         0.1508
      6 C4         -1.9481   -0.0638    1.9971 C.3       1 <0>         0.1153
      7 N1         -3.2945   -0.6420    1.8657 N.am      1 <0>        -0.6407
      8 C5         -3.4078   -2.0445    1.4367 C.3       1 <0>         0.0814
      9 C6         -2.5598   -2.2366    0.1751 C.3       1 <0>        -0.0211
     10 N2         -1.1852   -1.7925    0.4379 N.4       1 <0>        -0.3805
     11 C7         -0.6538   -2.5135    1.6022 C.3       1 <0>        -0.0655
     12 C8         -4.3929    0.0924    2.1312 C.2       1 <0>         0.7126
     13 O1         -4.2849    1.2746    2.3943 O.2       1 <0>        -0.5393
     14 N3         -5.6111   -0.4836    2.1051 N.am      1 <0>        -0.6662
     15 C9         -6.7558    0.2957    2.2845 C.ar      1 <0>         0.1494
     16 C10        -6.7026    1.6610    2.1048 C.ar      1 <0>        -0.1325
     17 C11        -7.8375    2.4468    2.2815 C.ar      1 <0>        -0.0963
     18 C12        -9.0291    1.8912    2.6358 C.ar      1 <0>        -0.1147
     19 C13        -9.1259    0.5027    2.8284 C.ar      1 <0>        -0.0348
     20 C14        -7.9787   -0.3084    2.6458 C.ar      1 <0>        -0.0621
     21 C15        -8.0784   -1.6960    2.8333 C.ar      1 <0>        -0.1214
     22 C16        -9.2748   -2.2447    3.1817 C.ar      1 <0>        -0.1038
     23 C17       -10.4053   -1.4487    3.3553 C.ar      1 <0>        -0.1146
     24 C18       -10.3428   -0.0986    3.1945 C.ar      1 <0>        -0.0963
     25 N4          1.0471   -0.2416   -0.3198 N.pl3     1 <0>        -0.7159
     26 C19         2.4187   -0.4057   -0.2340 C.ar      1 <0>         0.5915
     27 N5          3.0179   -0.2344    0.9353 N.ar      1 <0>        -0.5743
     28 C20         4.3281   -0.3833    1.0562 C.ar      1 <0>         0.2249
     29 C21         5.0756   -0.7221   -0.0567 C.ar      1 <0>        -0.2858
     30 C22         4.4165   -0.8955   -1.2732 C.ar      1 <0>         0.4569
     31 N6          3.0988   -0.7353   -1.3215 N.ar      1 <0>        -0.5852
     32 N7          5.1295   -1.2367   -2.4208 N.pl3     1 <0>        -0.4427
     33 C23         6.4760   -1.4404   -2.5063 C.2       1 <0>         0.2754
     34 N8          6.8048   -1.7449   -3.7268 N.2       1 <0>        -0.4545
     35 C24         5.6946   -1.7583   -4.5106 C.ar      1 <0>         0.0397
     36 C25         4.6033   -1.4377   -3.6836 C.ar      1 <0>         0.0695
     37 C26         3.3208   -1.3799   -4.2127 C.ar      1 <0>        -0.0961
     38 C27         3.1137   -1.6375   -5.5383 C.ar      1 <0>        -0.0715
     39 C28         4.1873   -1.9611   -6.3738 C.ar      1 <0>        -0.0591
     40 C29         5.4785   -2.0160   -5.8641 C.ar      1 <0>        -0.0048
     41 C30         3.9479   -2.2387   -7.8103 C.ar      1 <0>         0.2639
     42 C31         2.6744   -2.0733   -8.3624 C.ar      1 <0>        -0.2850
     43 C32         2.4991   -2.3439   -9.7073 C.ar      1 <0>         0.2002
     44 N9          3.5342   -2.7486  -10.4268 N.ar      1 <0>        -0.5727
     45 C33         4.7307   -2.8970   -9.8773 C.ar      1 <0>         0.5759
     46 N10         4.9435   -2.6441   -8.5954 N.ar      1 <0>        -0.5680
     47 N11         5.7865   -3.3222  -10.6650 N.pl3     1 <0>        -0.8183
     48 H3          1.3215    1.9699    1.2444 H         1 <0>         0.0868
     49 H4         -0.0669    2.1199    0.1407 H         1 <0>         0.0712
     50 H5         -0.3371    1.9202    1.8887 H         1 <0>         0.0827
     51 H6         -1.4350   -0.5193    2.8441 H         1 <0>         0.1027
     52 H7         -2.0250    1.0130    2.1475 H         1 <0>         0.1465
     53 H8         -3.0421   -2.7000    2.2271 H         1 <0>         0.1045
     54 H9         -4.4497   -2.2772    1.2167 H         1 <0>         0.1214
     55 H10        -2.5544   -3.2908   -0.1022 H         1 <0>         0.1499
     56 H11        -2.9822   -1.6486   -0.6397 H         1 <0>         0.1379
     57 H12        -1.2185   -2.2338    2.4915 H         1 <0>         0.1286
     58 H13        -0.7444   -3.5871    1.4370 H         1 <0>         0.1311
     59 H14         0.3957   -2.2547    1.7419 H         1 <0>         0.1281
     60 H15        -5.6927   -1.4394    1.9618 H         1 <0>         0.4050
     61 H16        -5.7695    2.1265    1.8239 H         1 <0>         0.1577
     62 H17        -7.7720    3.5149    2.1355 H         1 <0>         0.1304
     63 H18        -9.8989    2.5172    2.7691 H         1 <0>         0.1322
     64 H19        -7.2106   -2.3251    2.7015 H         1 <0>         0.1137
     65 H20        -9.3487   -3.3126    3.3254 H         1 <0>         0.1262
     66 H21       -11.3426   -1.9087    3.6311 H         1 <0>         0.1287
     67 H22       -11.2267    0.5061    3.3337 H         1 <0>         0.1339
     68 H23         0.5957   -0.3679   -1.1690 H         1 <0>         0.4125
     69 H24         4.8077   -0.2412    2.0134 H         1 <0>         0.1866
     70 H25         6.1457   -0.8492    0.0146 H         1 <0>         0.1595
     71 H26         7.1677   -1.3601   -1.6808 H         1 <0>         0.2275
     72 H27         2.4854   -1.1312   -3.5750 H         1 <0>         0.1396
     73 H28         2.1137   -1.5913   -5.9437 H         1 <0>         0.1407
     74 H29         6.3075   -2.2669   -6.5092 H         1 <0>         0.1507
     75 H30         1.8466   -1.7421   -7.7529 H         1 <0>         0.1451
     76 H31         1.5282   -2.2268  -10.1655 H         1 <0>         0.1713
     77 H32         5.6452   -3.5075  -11.6066 H         1 <0>         0.4175
     78 H33         6.6676   -3.4349  -10.2754 H         1 <0>         0.4163
     79 H34        -0.6098   -1.9886   -0.3675 H         1 <0>         0.4267
@<TRIPOS>BOND
     1    1    2 1
     2    1   48 1
     3    1   49 1
     4    1   50 1
     5    2    3 1
     6    2    4 1
     7    2   25 1
     8    4    5 1
     9    4   10 1
    10    4    6 1
    11    6    7 1
    12    6   51 1
    13    6   52 1
    14    7    8 1
    15    7   12 am
    16    8    9 1
    17    8   53 1
    18    8   54 1
    19    9   10 1
    20    9   55 1
    21    9   56 1
    22   10   11 1
    23   10   79 1
    24   11   57 1
    25   11   58 1
    26   11   59 1
    27   12   13 2
    28   12   14 am
    29   14   15 1
    30   14   60 1
    31   15   20 ar
    32   15   16 ar
    33   16   17 ar
    34   16   61 1
    35   17   18 ar
    36   17   62 1
    37   18   19 ar
    38   18   63 1
    39   19   24 ar
    40   19   20 ar
    41   20   21 ar
    42   21   22 ar
    43   21   64 1
    44   22   23 ar
    45   22   65 1
    46   23   24 ar
    47   23   66 1
    48   24   67 1
    49   25   26 1
    50   25   68 1
    51   26   31 ar
    52   26   27 ar
    53   27   28 ar
    54   28   29 ar
    55   28   69 1
    56   29   30 ar
    57   29   70 1
    58   30   31 ar
    59   30   32 1
    60   32   36 1
    61   32   33 1
    62   33   34 2
    63   33   71 1
    64   34   35 1
    65   35   40 ar
    66   35   36 ar
    67   36   37 ar
    68   37   38 ar
    69   37   72 1
    70   38   39 ar
    71   38   73 1
    72   39   40 ar
    73   39   41 1
    74   40   74 1
    75   41   46 ar
    76   41   42 ar
    77   42   43 ar
    78   42   75 1
    79   43   44 ar
    80   43   76 1
    81   44   45 ar
    82   45   46 ar
    83   45   47 1
    84   47   77 1
    85   47   78 1
@<TRIPOS>MOLECULE
CHEMBL491429
   41    44     0     0     0
SMALL
USER_CHARGES

@<TRIPOS>ATOM
      1 C1          2.1428    1.4728   -0.4825 C.ar      1 <0>        -0.0885
      2 C2          1.0994    2.1197    0.1546 C.ar      1 <0>        -0.0908
      3 C3          0.0900    1.3878    0.7523 C.ar      1 <0>        -0.1493
      4 C4          0.1208    0.0074    0.7152 C.ar      1 <0>        -0.0968
      5 C5          1.1670   -0.6454    0.0763 C.ar      1 <0>         0.1545
      6 C6          2.1795    0.0931   -0.5236 C.ar      1 <0>        -0.1167
      7 N1          1.2015   -2.0420    0.0373 N.pl3     1 <0>        -0.6216
      8 C7          0.0231   -2.7687    0.1407 C.2       1 <0>         0.3727
      9 C8         -0.0952   -4.2323    0.2306 C.ar      1 <0>        -0.1989
     10 C9          0.8340   -5.2736    0.2409 C.ar      1 <0>         0.0026
     11 C10         0.4059   -6.5802    0.3383 C.ar      1 <0>        -0.1416
     12 C11        -0.9447   -6.8732    0.4262 C.ar      1 <0>         0.0582
     13 C12        -1.8909   -5.8476    0.4173 C.ar      1 <0>        -0.1393
     14 C13        -1.4658   -4.5134    0.3194 C.ar      1 <0>         0.1494
     15 O1         -2.1196   -3.3371    0.2869 O.3       1 <0>        -0.0751
     16 N2         -1.1862   -2.2810    0.1819 N.2       1 <0>        -0.3222
     17 C14        -3.3279   -6.1633    0.5102 C.2       1 <0>         0.5742
     18 O2         -3.8658   -6.2339    1.5986 O.2       1 <0>        -0.4856
     19 N3         -4.0454   -6.3737   -0.6111 N.am      1 <0>        -0.6481
     20 C15        -5.4303   -6.5558   -0.5315 C.ar      1 <0>         0.0429
     21 C16        -6.1619   -6.0200    0.5252 C.ar      1 <0>         0.1457
     22 N4         -7.4696   -6.2142    0.5637 N.ar      1 <0>        -0.4958
     23 C17        -8.0794   -6.9033   -0.3798 C.ar      1 <0>         0.2748
     24 N5         -7.4228   -7.4267   -1.3956 N.ar      1 <0>        -0.4976
     25 C18        -6.1141   -7.2727   -1.5101 C.ar      1 <0>         0.1276
     26 Cl1        -1.4636   -8.5254    0.5477 Cl        1 <0>        -0.0206
     27 C19        -1.0448    2.0970    1.4454 C.3       1 <0>         0.5081
     28 F1         -0.8570    3.4802    1.3514 F         1 <0>        -0.1748
     29 F2         -2.2546    1.7481    0.8355 F         1 <0>        -0.1709
     30 F3         -1.0762    1.7211    2.7926 F         1 <0>        -0.1744
     31 H1          2.9273    2.0475   -0.9522 H         1 <0>         0.1445
     32 H2          1.0733    3.1989    0.1857 H         1 <0>         0.1439
     33 H3         -0.6676   -0.5637    1.1829 H         1 <0>         0.1510
     34 H4          2.9945   -0.4115   -1.0213 H         1 <0>         0.1399
     35 H5          2.0488   -2.5037   -0.0620 H         1 <0>         0.4315
     36 H6          1.8895   -5.0555    0.1720 H         1 <0>         0.1520
     37 H7          1.1295   -7.3819    0.3457 H         1 <0>         0.1596
     38 H8         -3.6017   -6.3989   -1.4733 H         1 <0>         0.4188
     39 H9         -5.6687   -5.4545    1.3020 H         1 <0>         0.1837
     40 H10        -9.1485   -7.0436   -0.3186 H         1 <0>         0.2010
     41 H11        -5.5831   -7.7005   -2.3476 H         1 <0>         0.1719
@<TRIPOS>BOND
     1    1    6 ar
     2    1    2 ar
     3    1   31 1
     4    2    3 ar
     5    2   32 1
     6    3    4 ar
     7    3   27 1
     8    4    5 ar
     9    4   33 1
    10    5    6 ar
    11    5    7 1
    12    6   34 1
    13    7    8 1
    14    7   35 1
    15    8   16 2
    16    8    9 1
    17    9   14 ar
    18    9   10 ar
    19   10   11 ar
    20   10   36 1
    21   11   12 ar
    22   11   37 1
    23   12   13 ar
    24   12   26 1
    25   13   14 ar
    26   13   17 1
    27   14   15 1
    28   15   16 1
    29   17   18 2
    30   17   19 am
    31   19   20 1
    32   19   38 1
    33   20   25 ar
    34   20   21 ar
    35   21   22 ar
    36   21   39 1
    37   22   23 ar
    38   23   24 ar
    39   23   40 1
    40   24   25 ar
    41   25   41 1
    42   27   28 1
    43   27   29 1
    44   27   30 1
@<TRIPOS>MOLECULE
CHEMBL215630
   53    55     0     0     0
SMALL
USER_CHARGES

@<TRIPOS>ATOM
      1 C1          0.1357    1.3904   -0.0638 C.3       1 <0>        -0.1151
      2 C2          0.0858   -0.1158   -0.0675 C.ar      1 <0>        -0.0789
      3 C3          0.7574   -0.8259   -1.0457 C.ar      1 <0>        -0.1180
      4 C4          0.7140   -2.2063   -1.0517 C.ar      1 <0>        -0.0838
      5 C5         -0.0051   -2.8812   -0.0737 C.ar      1 <0>         0.1268
      6 C6         -0.6785   -2.1649    0.9074 C.ar      1 <0>        -0.0589
      7 C7         -0.6268   -0.7848    0.9107 C.ar      1 <0>        -0.1176
      8 C8         -1.4605   -2.8931    1.9701 C.3       1 <0>        -0.1080
      9 N1         -0.0515   -4.2788   -0.0772 N.am      1 <0>        -0.6721
     10 C9          0.3460   -4.9689    1.0101 C.2       1 <0>         0.6187
     11 O1          0.6610   -4.3761    2.0258 O.2       1 <0>        -0.5056
     12 C10         0.3990   -6.4302    0.9699 C.2       1 <0>        -0.3496
     13 C11         0.7670   -7.3317    1.9590 C.2       1 <0>         0.1895
     14 N2          0.7181   -8.5998    1.6373 N.2       1 <0>        -0.5633
     15 C12         0.3383   -8.9926    0.4351 C.2       1 <0>         0.2866
     16 S1          0.0005   -7.5499   -0.3630 S.3       1 <0>         0.2692
     17 N3          0.2364  -10.2840   -0.0511 N.am      1 <0>        -0.6190
     18 C13        -0.1729  -10.4970   -1.3174 C.2       1 <0>         0.7056
     19 O2         -0.4525   -9.5545   -2.0325 O.2       1 <0>        -0.5491
     20 N4         -0.2721  -11.7549   -1.7910 N.am      1 <0>        -0.7223
     21 C14        -0.7170  -11.9864   -3.1674 C.3       1 <0>         0.1789
     22 C15        -0.7412  -13.4674   -3.4452 C.ar      1 <0>        -0.1180
     23 C16         0.3850  -14.0958   -3.9429 C.ar      1 <0>        -0.0975
     24 C17         0.3628  -15.4543   -4.1977 C.ar      1 <0>        -0.1216
     25 C18        -0.7855  -16.1845   -3.9542 C.ar      1 <0>        -0.1067
     26 C19        -1.9114  -15.5563   -3.4556 C.ar      1 <0>        -0.1216
     27 C20        -1.8878  -14.1985   -3.1968 C.ar      1 <0>        -0.0975
     28 C21         1.1999   -6.8755    3.3286 C.3       1 <0>        -0.0898
     29 C22         1.4458   -2.9794   -2.1184 C.3       1 <0>        -0.1125
     30 H1          0.9875    1.7242    0.5288 H         1 <0>         0.0713
     31 H2          0.2401    1.7530   -1.0864 H         1 <0>         0.0667
     32 H3         -0.7843    1.7834    0.3690 H         1 <0>         0.0669
     33 H4          1.3161   -0.3005   -1.8061 H         1 <0>         0.1256
     34 H5         -1.1468   -0.2274    1.6757 H         1 <0>         0.1253
     35 H6         -0.8507   -2.9887    2.8685 H         1 <0>         0.0862
     36 H7         -2.3657   -2.3324    2.2034 H         1 <0>         0.0610
     37 H8         -1.7307   -3.8847    1.6071 H         1 <0>         0.0565
     38 H9         -0.3697   -4.7516   -0.8621 H         1 <0>         0.4051
     39 H10         0.4596  -11.0360    0.5195 H         1 <0>         0.4244
     40 H11        -0.0489  -12.5070   -1.2204 H         1 <0>         0.4055
     41 H12        -1.7179  -11.5755   -3.2998 H         1 <0>         0.0838
     42 H13        -0.0296  -11.4984   -3.8584 H         1 <0>         0.0838
     43 H14         1.2821  -13.5253   -4.1331 H         1 <0>         0.1254
     44 H15         1.2424  -15.9451   -4.5872 H         1 <0>         0.1262
     45 H16        -0.8031  -17.2457   -4.1539 H         1 <0>         0.1253
     46 H17        -2.8086  -16.1267   -3.2657 H         1 <0>         0.1262
     47 H18        -2.7662  -13.7084   -2.8037 H         1 <0>         0.1254
     48 H19         0.3295   -6.8095    3.9814 H         1 <0>         0.0828
     49 H20         1.9107   -7.5910    3.7420 H         1 <0>         0.0751
     50 H21         1.6724   -5.8962    3.2528 H         1 <0>         0.0978
     51 H22         2.4594   -3.1946   -1.7804 H         1 <0>         0.0724
     52 H23         0.9214   -3.9149   -2.3134 H         1 <0>         0.0622
     53 H24         1.4857   -2.3878   -3.0331 H         1 <0>         0.0706
@<TRIPOS>BOND
     1    1    2 1
     2    1   30 1
     3    1   31 1
     4    1   32 1
     5    2    7 ar
     6    2    3 ar
     7    3    4 ar
     8    3   33 1
     9    4    5 ar
    10    4   29 1
    11    5    6 ar
    12    5    9 1
    13    6    7 ar
    14    6    8 1
    15    7   34 1
    16    8   35 1
    17    8   36 1
    18    8   37 1
    19    9   10 am
    20    9   38 1
    21   10   11 2
    22   10   12 1
    23   12   16 1
    24   12   13 2
    25   13   14 1
    26   13   28 1
    27   14   15 2
    28   15   16 1
    29   15   17 1
    30   17   18 am
    31   17   39 1
    32   18   19 2
    33   18   20 am
    34   20   21 1
    35   20   40 1
    36   21   22 1
    37   21   41 1
    38   21   42 1
    39   22   27 ar
    40   22   23 ar
    41   23   24 ar
    42   23   43 1
    43   24   25 ar
    44   24   44 1
    45   25   26 ar
    46   25   45 1
    47   26   27 ar
    48   26   46 1
    49   27   47 1
    50   28   48 1
    51   28   49 1
    52   28   50 1
    53   29   51 1
    54   29   52 1
    55   29   53 1
@<TRIPOS>MOLECULE
CHEMBL186551
   37    40     0     0     0
SMALL
USER_CHARGES

@<TRIPOS>ATOM
      1 C1          2.5881   -1.1221    1.8659 C.3       1 <0>        -0.1147
      2 C2          1.4234   -1.3023    0.9268 C.ar      1 <0>        -0.0530
      3 C3          1.5806   -2.0277   -0.2385 C.ar      1 <0>        -0.1104
      4 C4          0.5130   -2.1938   -1.1011 C.ar      1 <0>        -0.0885
      5 C5         -0.7161   -1.6349   -0.8011 C.ar      1 <0>        -0.1115
      6 C6         -0.8805   -0.9079    0.3623 C.ar      1 <0>        -0.0135
      7 C7          0.1897   -0.7444    1.2346 C.ar      1 <0>         0.1370
      8 N1          0.0257   -0.0150    2.4163 N.pl3     1 <0>        -0.6280
      9 C8         -0.3630   -0.6557    3.5735 C.2       1 <0>         0.5511
     10 C9         -0.4711    0.0933    4.8222 C.2       1 <0>        -0.1028
     11 C10        -0.2651    1.4035    5.1793 C.2       1 <0>         0.0687
     12 N2         -0.5243    1.5088    6.4841 N.2       1 <0>        -0.4674
     13 C11        -0.8800    0.3414    6.9619 C.2       1 <0>         0.2134
     14 N3         -0.8629   -0.5674    5.9739 N.pl3     1 <0>        -0.3486
     15 C12        -1.1400   -1.9265    5.8968 C.ar      1 <0>        -0.1060
     16 C13        -1.5372   -2.6443    7.0137 C.ar      1 <0>         0.2221
     17 N4         -1.7901   -3.9391    6.8865 N.ar      1 <0>        -0.5672
     18 C14        -1.6689   -4.5488    5.7171 C.ar      1 <0>         0.5286
     19 N5         -1.2935   -3.9085    4.6250 N.ar      1 <0>        -0.5030
     20 C15        -1.0196   -2.6001    4.6665 C.ar      1 <0>         0.4505
     21 N6         -0.6428   -1.9448    3.5521 N.2       1 <0>        -0.5501
     22 O1         -1.9390   -5.8743    5.6387 O.3       1 <0>        -0.2818
     23 C16        -2.3413   -6.5268    6.8446 C.3       1 <0>         0.0421
     24 Cl1        -2.4232   -0.2061    0.7381 Cl        1 <0>        -0.0578
     25 H1          2.6031   -1.9392    2.5871 H         1 <0>         0.0747
     26 H2          3.5175   -1.1230    1.2965 H         1 <0>         0.0753
     27 H3          2.4860   -0.1737    2.3935 H         1 <0>         0.0672
     28 H4          2.5390   -2.4652   -0.4761 H         1 <0>         0.1354
     29 H5          0.6391   -2.7611   -2.0114 H         1 <0>         0.1376
     30 H6         -1.5481   -1.7666   -1.4771 H         1 <0>         0.1389
     31 H7          0.1853    0.9417    2.4218 H         1 <0>         0.4282
     32 H8          0.0496    2.2023    4.5240 H         1 <0>         0.1904
     33 H9         -1.1447    0.1416    7.9897 H         1 <0>         0.2213
     34 H10        -1.6387   -2.1567    7.9720 H         1 <0>         0.1809
     35 H11        -1.5514   -6.4324    7.5898 H         1 <0>         0.0662
     36 H12        -3.2534   -6.0639    7.2214 H         1 <0>         0.0661
     37 H13        -2.5260   -7.5819    6.6426 H         1 <0>         0.1085
@<TRIPOS>BOND
     1    1    2 1
     2    1   25 1
     3    1   26 1
     4    1   27 1
     5    2    7 ar
     6    2    3 ar
     7    3    4 ar
     8    3   28 1
     9    4    5 ar
    10    4   29 1
    11    5    6 ar
    12    5   30 1
    13    6    7 ar
    14    6   24 1
    15    7    8 1
    16    8    9 1
    17    8   31 1
    18    9   21 2
    19    9   10 1
    20   10   14 1
    21   10   11 2
    22   11   12 1
    23   11   32 1
    24   12   13 2
    25   13   14 1
    26   13   33 1
    27   14   15 1
    28   15   20 ar
    29   15   16 ar
    30   16   17 ar
    31   16   34 1
    32   17   18 ar
    33   18   19 ar
    34   18   22 1
    35   19   20 ar
    36   20   21 1
    37   22   23 1
    38   23   35 1
    39   23   36 1
    40   23   37 1
@<TRIPOS>MOLECULE
CHEMBL1090360
   72    78     0     0     0
SMALL
USER_CHARGES

@<TRIPOS>ATOM
      1 C1          7.2293   -4.9806   -3.5386 C.ar      1 <0>        -0.1173
      2 C2          5.9325   -4.9809   -3.0597 C.ar      1 <0>        -0.1187
      3 C3          5.4917   -3.9450   -2.2575 C.ar      1 <0>        -0.1038
      4 C4          6.3478   -2.9090   -1.9339 C.ar      1 <0>        -0.0719
      5 C5          7.6448   -2.9091   -2.4121 C.ar      1 <0>        -0.1041
      6 C6          8.0852   -3.9443   -3.2154 C.ar      1 <0>        -0.1186
      7 C7          5.8669   -1.7792   -1.0602 C.3       1 <0>        -0.0992
      8 C8          6.1315   -2.1142    0.3851 C.2       1 <0>         0.5095
      9 O1          6.6587   -3.1668    0.6769 O.2       1 <0>        -0.4988
     10 N1          5.7824   -1.2441    1.3534 N.am      1 <0>        -0.6768
     11 C9          5.9374   -1.5956    2.6990 C.ar      1 <0>         0.1355
     12 C10         5.0082   -1.1687    3.6404 C.ar      1 <0>        -0.1296
     13 C11         5.1574   -1.5134    4.9703 C.ar      1 <0>        -0.1108
     14 C12         6.2302   -2.2839    5.3720 C.ar      1 <0>        -0.0702
     15 C13         7.1678   -2.7169    4.4346 C.ar      1 <0>         0.0050
     16 C14         7.0146   -2.3743    3.0924 C.ar      1 <0>        -0.0796
     17 C15         8.3202   -3.5435    4.8636 C.2       1 <0>         0.1584
     18 C16         8.9972   -3.4383    6.0659 C.2       1 <0>         0.0062
     19 N2         10.0089   -4.4067    6.0520 N.pl3     1 <0>        -0.4154
     20 C17        11.0154   -4.8458    6.8815 C.2       1 <0>         0.0211
     21 C18        11.8211   -5.8405    6.5101 C.2       1 <0>        -0.1691
     22 S1         11.1850   -6.2440    4.8907 S.3       1 <0>         0.1520
     23 C19         9.8802   -5.0361    4.8432 C.2       1 <0>         0.1938
     24 N3          8.8908   -4.5322    4.1583 N.2       1 <0>        -0.4261
     25 C20         8.7093   -2.4897    7.1515 C.ar      1 <0>         0.2964
     26 C21         9.0797   -2.7839    8.4734 C.ar      1 <0>        -0.2809
     27 C22         8.7879   -1.8619    9.4577 C.ar      1 <0>         0.1984
     28 N4          8.1717   -0.7347    9.1302 N.ar      1 <0>        -0.5496
     29 C23         7.8322   -0.4801    7.8747 C.ar      1 <0>         0.5702
     30 N5          8.0960   -1.3310    6.8961 N.ar      1 <0>        -0.5379
     31 N6          7.1895    0.7109    7.5780 N.pl3     1 <0>        -0.6338
     32 C24         7.0047    1.6728    8.5756 C.ar      1 <0>         0.2134
     33 C25         7.9553    1.8274    9.5776 C.ar      1 <0>        -0.1693
     34 C26         7.7732    2.7772   10.5639 C.ar      1 <0>        -0.0511
     35 C27         6.6464    3.5769   10.5577 C.ar      1 <0>        -0.2151
     36 C28         5.6922    3.4276    9.5588 C.ar      1 <0>         0.2398
     37 C29         5.8749    2.4780    8.5631 C.ar      1 <0>        -0.2281
     38 N7          4.5532    4.2359    9.5535 N.pl3     1 <0>        -0.6326
     39 C30         3.4688    4.0105    8.5846 C.3       1 <0>         0.0873
     40 C31         2.1423    3.9455    9.3502 C.3       1 <0>         0.0456
     41 O2          2.0210    5.1026   10.1809 O.3       1 <0>        -0.3792
     42 C32         3.0299    5.2083   11.1882 C.3       1 <0>         0.0450
     43 C33         4.3994    5.3344   10.5205 C.3       1 <0>         0.0867
     44 H1          7.5750   -5.7921   -4.1616 H         1 <0>         0.1216
     45 H2          5.2637   -5.7903   -3.3125 H         1 <0>         0.1223
     46 H3          4.4784   -3.9449   -1.8839 H         1 <0>         0.1192
     47 H4          8.3135   -2.0995   -2.1595 H         1 <0>         0.1191
     48 H5          9.0984   -3.9442   -3.5893 H         1 <0>         0.1222
     49 H6          6.3977   -0.8645   -1.3242 H         1 <0>         0.1060
     50 H7          4.7970   -1.6344   -1.2096 H         1 <0>         0.1066
     51 H8          5.4236   -0.3743    1.1175 H         1 <0>         0.4109
     52 H9          4.1673   -0.5654    3.3317 H         1 <0>         0.1260
     53 H10         4.4327   -1.1788    5.6977 H         1 <0>         0.1255
     54 H11         6.3437   -2.5510    6.4123 H         1 <0>         0.1139
     55 H12         7.7355   -2.7104    2.3618 H         1 <0>         0.1445
     56 H13        11.1543   -4.3785    7.8452 H         1 <0>         0.1771
     57 H14        12.6445   -6.2864    7.0483 H         1 <0>         0.2222
     58 H15         9.5807   -3.7099    8.7142 H         1 <0>         0.1400
     59 H16         9.0585   -2.0568   10.4850 H         1 <0>         0.1740
     60 H17         6.8678    0.8773    6.6782 H         1 <0>         0.4235
     61 H18         8.8371    1.2039    9.5853 H         1 <0>         0.1306
     62 H19         8.5131    2.8948   11.3418 H         1 <0>         0.1237
     63 H20         6.5071    4.3186   11.3303 H         1 <0>         0.1215
     64 H21         5.1369    2.3629    7.7830 H         1 <0>         0.1236
     65 H22         3.4396    4.8318    7.8686 H         1 <0>         0.0706
     66 H23         3.6357    3.0703    8.0590 H         1 <0>         0.0912
     67 H24         1.3142    3.9173    8.6419 H         1 <0>         0.1048
     68 H25         2.1230    3.0489    9.9698 H         1 <0>         0.0557
     69 H26         2.8405    6.0886   11.8024 H         1 <0>         0.1056
     70 H27         3.0139    4.3163   11.8145 H         1 <0>         0.0557
     71 H28         5.1823    5.2705   11.2762 H         1 <0>         0.0944
     72 H29         4.4654    6.2913   10.0027 H         1 <0>         0.0708
@<TRIPOS>BOND
     1    1    6 ar
     2    1    2 ar
     3    1   44 1
     4    2    3 ar
     5    2   45 1
     6    3    4 ar
     7    3   46 1
     8    4    5 ar
     9    4    7 1
    10    5    6 ar
    11    5   47 1
    12    6   48 1
    13    7    8 1
    14    7   49 1
    15    7   50 1
    16    8    9 2
    17    8   10 am
    18   10   11 1
    19   10   51 1
    20   11   16 ar
    21   11   12 ar
    22   12   13 ar
    23   12   52 1
    24   13   14 ar
    25   13   53 1
    26   14   15 ar
    27   14   54 1
    28   15   16 ar
    29   15   17 1
    30   16   55 1
    31   17   24 1
    32   17   18 2
    33   18   19 1
    34   18   25 1
    35   19   23 1
    36   19   20 1
    37   20   21 2
    38   20   56 1
    39   21   22 1
    40   21   57 1
    41   22   23 1
    42   23   24 2
    43   25   30 ar
    44   25   26 ar
    45   26   27 ar
    46   26   58 1
    47   27   28 ar
    48   27   59 1
    49   28   29 ar
    50   29   30 ar
    51   29   31 1
    52   31   32 1
    53   31   60 1
    54   32   37 ar
    55   32   33 ar
    56   33   34 ar
    57   33   61 1
    58   34   35 ar
    59   34   62 1
    60   35   36 ar
    61   35   63 1
    62   36   37 ar
    63   36   38 1
    64   37   64 1
    65   38   43 1
    66   38   39 1
    67   39   40 1
    68   39   65 1
    69   39   66 1
    70   40   41 1
    71   40   67 1
    72   40   68 1
    73   41   42 1
    74   42   43 1
    75   42   69 1
    76   42   70 1
    77   43   71 1
    78   43   72 1
@<TRIPOS>MOLECULE
CHEMBL1080475
   65    69     0     0     0
SMALL
USER_CHARGES

@<TRIPOS>ATOM
      1 C1         -7.6572   -0.7590    6.7936 C.3       1 <0>        -0.1091
      2 C2         -6.5531   -1.6758    6.3340 C.ar      1 <0>        -0.1413
      3 C3         -6.7327   -3.0454    6.3715 C.ar      1 <0>        -0.0723
      4 C4         -5.7230   -3.8892    5.9515 C.ar      1 <0>        -0.1424
      5 C5         -4.5225   -3.3629    5.4897 C.ar      1 <0>         0.1704
      6 C6         -4.3390   -1.9883    5.4503 C.ar      1 <0>        -0.1836
      7 C7         -5.3577   -1.1430    5.8676 C.ar      1 <0>         0.1931
      8 N1         -5.1790    0.2429    5.8242 N.pl3     1 <0>        -0.6299
      9 C8         -4.0550    0.7751    5.2266 C.2       1 <0>         0.5587
     10 N2         -3.1519    0.0872    4.5746 N.2       1 <0>        -0.5168
     11 C9         -2.1819    0.9221    4.1166 C.ar      1 <0>         0.0809
     12 C10        -1.0127    0.7202    3.3791 C.ar      1 <0>        -0.0761
     13 C11        -0.2112    1.7936    3.0602 C.ar      1 <0>        -0.1136
     14 C12        -0.5557    3.0742    3.4662 C.ar      1 <0>        -0.1078
     15 C13        -1.7070    3.2901    4.1956 C.ar      1 <0>        -0.0988
     16 C14        -2.5259    2.2212    4.5246 C.ar      1 <0>         0.0566
     17 N3         -3.7200    2.1032    5.2215 N.pl3     1 <0>        -0.4655
     18 C15        -4.4417    3.1409    5.8085 C.ar      1 <0>         0.4041
     19 C16        -5.2738    3.9446    5.0381 C.ar      1 <0>        -0.2689
     20 C17        -5.9739    4.9680    5.6720 C.ar      1 <0>         0.4556
     21 N4         -5.8218    5.1384    6.9836 N.ar      1 <0>        -0.5675
     22 C18        -5.0229    4.3546    7.6785 C.ar      1 <0>         0.3640
     23 N5         -4.3481    3.3730    7.1155 N.ar      1 <0>        -0.5561
     24 N6         -6.8162    5.7973    4.9480 N.pl3     1 <0>        -0.8261
     25 N7         -3.5005   -4.2180    5.0656 N.am      1 <0>        -0.6618
     26 C19        -3.8047   -5.3964    4.4866 C.2       1 <0>         0.5463
     27 O1         -4.9637   -5.6778    4.2536 O.2       1 <0>        -0.4763
     28 C20        -2.7263   -6.3486    4.1344 C.ar      1 <0>        -0.0922
     29 C21        -1.3978   -6.0935    4.4896 C.ar      1 <0>        -0.1376
     30 C22        -0.4240   -7.0089    4.1414 C.ar      1 <0>         0.0894
     31 N8         -0.7329   -8.1089    3.4838 N.ar      1 <0>        -0.4611
     32 C23        -1.9715   -8.3878    3.1300 C.ar      1 <0>         0.0940
     33 C24        -3.0088   -7.5304    3.4427 C.ar      1 <0>        -0.0598
     34 C25        -4.4227   -7.8612    3.0394 C.3       1 <0>        -0.0197
     35 C26        -4.4350   -9.1740    2.2537 C.3       1 <0>        -0.1496
     36 C27        -5.2891   -8.0084    4.2919 C.3       1 <0>        -0.1275
     37 C28        -4.9794   -6.7372    2.1634 C.3       1 <0>        -0.1257
     38 H1         -8.3044   -0.5184    5.9502 H         1 <0>         0.0699
     39 H2         -8.2409   -1.2538    7.5699 H         1 <0>         0.0748
     40 H3         -7.2250    0.1584    7.1933 H         1 <0>         0.0517
     41 H4         -7.6645   -3.4569    6.7303 H         1 <0>         0.1301
     42 H5         -5.8664   -4.9592    5.9824 H         1 <0>         0.1362
     43 H6         -3.4069   -1.5768    5.0921 H         1 <0>         0.1865
     44 H7         -5.8451    0.8302    6.2142 H         1 <0>         0.4178
     45 H8         -0.7382   -0.2745    3.0604 H         1 <0>         0.1326
     46 H9          0.6925    1.6370    2.4900 H         1 <0>         0.1329
     47 H10         0.0814    3.9079    3.2101 H         1 <0>         0.1321
     48 H11        -1.9695    4.2896    4.5094 H         1 <0>         0.1174
     49 H12        -5.3746    3.7799    3.9755 H         1 <0>         0.1497
     50 H13        -4.9210    4.5191    8.7410 H         1 <0>         0.2097
     51 H14        -6.9214    5.6670    3.9926 H         1 <0>         0.4162
     52 H15        -7.3004    6.5079    5.3968 H         1 <0>         0.4145
     53 H16        -2.5727   -3.9629    5.1881 H         1 <0>         0.4101
     54 H17        -1.1374   -5.1940    5.0277 H         1 <0>         0.1390
     55 H18         0.6047   -6.8207    4.4112 H         1 <0>         0.1634
     56 H19        -2.1791   -9.3010    2.5920 H         1 <0>         0.1668
     57 H20        -4.0384   -9.9747    2.8778 H         1 <0>         0.0590
     58 H21        -5.4576   -9.4132    1.9620 H         1 <0>         0.0648
     59 H22        -3.8178   -9.0691    1.3614 H         1 <0>         0.0587
     60 H23        -4.9581   -7.2968    5.0483 H         1 <0>         0.0717
     61 H24        -6.3307   -7.8109    4.0384 H         1 <0>         0.0615
     62 H25        -5.1958   -9.0222    4.6812 H         1 <0>         0.0393
     63 H26        -4.7442   -6.9405    1.1186 H         1 <0>         0.0399
     64 H27        -6.0608   -6.6810    2.2881 H         1 <0>         0.0630
     65 H28        -4.5298   -5.7893    2.4592 H         1 <0>         0.0646
@<TRIPOS>BOND
     1    1    2 1
     2    1   38 1
     3    1   39 1
     4    1   40 1
     5    2    7 ar
     6    2    3 ar
     7    3    4 ar
     8    3   41 1
     9    4    5 ar
    10    4   42 1
    11    5    6 ar
    12    5   25 1
    13    6    7 ar
    14    6   43 1
    15    7    8 1
    16    8    9 1
    17    8   44 1
    18    9   17 1
    19    9   10 2
    20   10   11 1
    21   11   16 ar
    22   11   12 ar
    23   12   13 ar
    24   12   45 1
    25   13   14 ar
    26   13   46 1
    27   14   15 ar
    28   14   47 1
    29   15   16 ar
    30   15   48 1
    31   16   17 1
    32   17   18 1
    33   18   23 ar
    34   18   19 ar
    35   19   20 ar
    36   19   49 1
    37   20   21 ar
    38   20   24 1
    39   21   22 ar
    40   22   23 ar
    41   22   50 1
    42   24   51 1
    43   24   52 1
    44   25   26 am
    45   25   53 1
    46   26   27 2
    47   26   28 1
    48   28   33 ar
    49   28   29 ar
    50   29   30 ar
    51   29   54 1
    52   30   31 ar
    53   30   55 1
    54   31   32 ar
    55   32   33 ar
    56   32   56 1
    57   33   34 1
    58   34   35 1
    59   34   36 1
    60   34   37 1
    61   35   57 1
    62   35   58 1
    63   35   59 1
    64   36   60 1
    65   36   61 1
    66   36   62 1
    67   37   63 1
    68   37   64 1
    69   37   65 1
@<TRIPOS>MOLECULE
CHEMBL1080475__1
   66    70     0     0     0
SMALL
USER_CHARGES

@<TRIPOS>ATOM
      1 C1          2.4479    1.3682   -5.6196 C.3       1 <0>        -0.1217
      2 C2          1.7981    0.4638   -4.6043 C.ar      1 <0>        -0.1138
      3 C3          0.6044   -0.1645   -4.9036 C.ar      1 <0>        -0.0479
      4 C4          0.0052   -0.9940   -3.9756 C.ar      1 <0>        -0.1232
      5 C5          0.6017   -1.1991   -2.7372 C.ar      1 <0>         0.2021
      6 C6          1.8005   -0.5702   -2.4336 C.ar      1 <0>        -0.2141
      7 C7          2.4028    0.2581   -3.3704 C.ar      1 <0>         0.1570
      8 N1          3.6137    0.8893   -3.0706 N.pl3     1 <0>        -0.6316
      9 C8          4.2269    0.6638   -1.8553 C.cat     1 <0>         0.6406
     10 N2          4.3209   -0.5006   -1.2643 N.pl3     1 <0>        -0.5037
     11 C9          4.9843   -0.3643   -0.0857 C.ar      1 <0>         0.0531
     12 C10         5.3517   -1.2645    0.9174 C.ar      1 <0>        -0.0782
     13 C11         6.0365   -0.8136    2.0238 C.ar      1 <0>        -0.0735
     14 C12         6.3641    0.5281    2.1502 C.ar      1 <0>        -0.0709
     15 C13         6.0078    1.4298    1.1682 C.ar      1 <0>        -0.0643
     16 C14         5.3191    0.9932    0.0475 C.ar      1 <0>         0.0913
     17 N3          4.8335    1.6235   -1.0894 N.pl3     1 <0>        -0.3908
     18 C15         4.9406    2.9794   -1.3934 C.ar      1 <0>         0.4102
     19 C16         4.2980    3.5047   -2.5083 C.ar      1 <0>        -0.3197
     20 C17         4.4355    4.8658   -2.7687 C.ar      1 <0>         0.4815
     21 N4          5.1724    5.6093   -1.9460 N.ar      1 <0>        -0.5630
     22 C18         5.7657    5.0729   -0.8993 C.ar      1 <0>         0.3978
     23 N5          5.6550    3.7907   -0.6172 N.ar      1 <0>        -0.5651
     24 N6          3.8149    5.4378   -3.8682 N.pl3     1 <0>        -0.8142
     25 N7         -0.0060   -2.0382   -1.7981 N.am      1 <0>        -0.6723
     26 C19        -0.7461   -3.0865   -2.2102 C.2       1 <0>         0.5515
     27 O1         -0.8161   -3.3530   -3.3938 O.2       1 <0>        -0.4638
     28 C20        -1.4740   -3.9138   -1.2205 C.ar      1 <0>        -0.1007
     29 C21        -1.5304   -3.5400    0.1260 C.ar      1 <0>        -0.1404
     30 C22        -2.2207   -4.3407    1.0148 C.ar      1 <0>         0.0930
     31 N8         -2.8200   -5.4425    0.6089 N.ar      1 <0>        -0.4538
     32 C23        -2.7915   -5.8310   -0.6503 C.ar      1 <0>         0.1007
     33 C24        -2.1288   -5.0869   -1.6074 C.ar      1 <0>        -0.0557
     34 C25        -2.1074   -5.5360   -3.0458 C.3       1 <0>        -0.0219
     35 C26        -2.7983   -6.8958   -3.1659 C.3       1 <0>        -0.1526
     36 C27        -2.8440   -4.5115   -3.9110 C.3       1 <0>        -0.1322
     37 C28        -0.6580   -5.6567   -3.5209 C.3       1 <0>        -0.1224
     38 H1          3.1185    0.7841   -6.2499 H         1 <0>         0.0854
     39 H2          1.6793    1.8314   -6.2382 H         1 <0>         0.0901
     40 H3          3.0160    2.1431   -5.1050 H         1 <0>         0.0525
     41 H4          0.1386   -0.0065   -5.8651 H         1 <0>         0.1484
     42 H5         -0.9280   -1.4833   -4.2125 H         1 <0>         0.1538
     43 H6          2.2658   -0.7277   -1.4718 H         1 <0>         0.1216
     44 H7          4.0227    1.4857   -3.7170 H         1 <0>         0.4454
     45 H8          5.0993   -2.3106    0.8257 H         1 <0>         0.1545
     46 H9          6.3204   -1.5100    2.7990 H         1 <0>         0.1588
     47 H10         6.9010    0.8694    3.0229 H         1 <0>         0.1592
     48 H11         6.2651    2.4735    1.2728 H         1 <0>         0.1667
     49 H12         3.7076    2.8736   -3.1560 H         1 <0>         0.1504
     50 H13         6.3568    5.7032   -0.2514 H         1 <0>         0.2232
     51 H14         3.2800    4.8893   -4.4630 H         1 <0>         0.4178
     52 H15         3.9156    6.3866   -4.0428 H         1 <0>         0.4230
     53 H16         0.1051   -1.8657   -0.8500 H         1 <0>         0.4126
     54 H17        -1.0413   -2.6391    0.4658 H         1 <0>         0.1355
     55 H18        -2.2700   -4.0605    2.0567 H         1 <0>         0.1655
     56 H19        -3.2966   -6.7410   -0.9385 H         1 <0>         0.1712
     57 H20        -3.8309   -6.8099   -2.8274 H         1 <0>         0.0617
     58 H21        -2.7828   -7.2207   -4.2062 H         1 <0>         0.0680
     59 H22        -2.2735   -7.6257   -2.5495 H         1 <0>         0.0607
     60 H23        -2.5906   -3.5051   -3.5776 H         1 <0>         0.0712
     61 H24        -2.5469   -4.6348   -4.9525 H         1 <0>         0.0628
     62 H25        -3.9193   -4.6646   -3.8193 H         1 <0>         0.0451
     63 H26        -0.3182   -6.6845   -3.3934 H         1 <0>         0.0442
     64 H27        -0.5967   -5.3817   -4.5738 H         1 <0>         0.0662
     65 H28        -0.0265   -4.9898   -2.9338 H         1 <0>         0.0539
     66 H29         3.9700   -1.3345   -1.6143 H         1 <0>         0.4633
@<TRIPOS>BOND
     1    1    2 1
     2    1   38 1
     3    1   39 1
     4    1   40 1
     5    2    7 ar
     6    2    3 ar
     7    3    4 ar
     8    3   41 1
     9    4    5 ar
    10    4   42 1
    11    5    6 ar
    12    5   25 1
    13    6    7 ar
    14    6   43 1
    15    7    8 1
    16    8    9 1
    17    8   44 1
    18    9   17 1
    19    9   10 2
    20   10   11 1
    21   10   66 1
    22   11   16 ar
    23   11   12 ar
    24   12   13 ar
    25   12   45 1
    26   13   14 ar
    27   13   46 1
    28   14   15 ar
    29   14   47 1
    30   15   16 ar
    31   15   48 1
    32   16   17 1
    33   17   18 1
    34   18   23 ar
    35   18   19 ar
    36   19   20 ar
    37   19   49 1
    38   20   21 ar
    39   20   24 1
    40   21   22 ar
    41   22   23 ar
    42   22   50 1
    43   24   51 1
    44   24   52 1
    45   25   26 am
    46   25   53 1
    47   26   27 2
    48   26   28 1
    49   28   33 ar
    50   28   29 ar
    51   29   30 ar
    52   29   54 1
    53   30   31 ar
    54   30   55 1
    55   31   32 ar
    56   32   33 ar
    57   32   56 1
    58   33   34 1
    59   34   35 1
    60   34   36 1
    61   34   37 1
    62   35   57 1
    63   35   58 1
    64   35   59 1
    65   36   60 1
    66   36   61 1
    67   36   62 1
    68   37   63 1
    69   37   64 1
    70   37   65 1
@<TRIPOS>MOLECULE
CHEMBL189675
   36    38     0     0     0
SMALL
USER_CHARGES

@<TRIPOS>ATOM
      1 C1         -1.2792    1.1682    0.2143 C.3       1 <0>        -0.1167
      2 C2         -0.5864   -0.1654    0.1021 C.ar      1 <0>        -0.0848
      3 C3         -0.5847   -0.8445   -1.1010 C.ar      1 <0>        -0.1053
      4 C4          0.0505   -2.0681   -1.2055 C.ar      1 <0>        -0.1064
      5 C5          0.6863   -2.6168   -0.1066 C.ar      1 <0>        -0.1063
      6 C6          0.6885   -1.9431    1.0998 C.ar      1 <0>        -0.0241
      7 C7          0.0555   -0.7099    1.2061 C.ar      1 <0>         0.1451
      8 N1          0.0605   -0.0220    2.4242 N.am      1 <0>        -0.6728
      9 C8         -0.3378   -0.6444    3.5513 C.2       1 <0>         0.6130
     10 O1         -0.6054   -1.8321    3.5288 O.2       1 <0>        -0.4905
     11 C9         -0.4486    0.1064    4.8009 C.2       1 <0>        -0.3141
     12 C10        -0.8282   -0.3258    6.0642 C.2       1 <0>         0.1780
     13 N2         -0.8365    0.5790    7.0102 N.2       1 <0>        -0.5774
     14 C11        -0.5005    1.8339    6.7678 C.2       1 <0>         0.3136
     15 S1         -0.1257    1.8321    5.1271 S.3       1 <0>         0.1481
     16 N3         -0.4603    2.8925    7.6513 N.pl3     1 <0>        -0.5993
     17 C12        -0.6840    2.6746    9.0140 C.ar      1 <0>         0.1020
     18 C13        -0.4331    1.4270    9.5809 C.ar      1 <0>        -0.0837
     19 C14        -0.6697    1.2603   10.9353 C.ar      1 <0>        -0.1446
     20 C15        -1.1433    2.3285   11.6747 C.ar      1 <0>         0.0804
     21 N4         -1.3708    3.4972   11.1081 N.ar      1 <0>        -0.4601
     22 C16        -1.1542    3.7003    9.8238 C.ar      1 <0>         0.0764
     23 Cl1         1.4866   -2.6322    2.4788 Cl        1 <0>        -0.0437
     24 H1         -0.5762    1.9646   -0.0303 H         1 <0>         0.0758
     25 H2         -2.1200    1.2003   -0.4785 H         1 <0>         0.0757
     26 H3         -1.6424    1.3044    1.2330 H         1 <0>         0.0672
     27 H4         -1.0805   -0.4192   -1.9611 H         1 <0>         0.1341
     28 H5          0.0498   -2.5968   -2.1472 H         1 <0>         0.1354
     29 H6          1.1812   -3.5730   -0.1915 H         1 <0>         0.1373
     30 H7          0.3507    0.9030    2.4576 H         1 <0>         0.4086
     31 H8         -1.1021   -1.3527    6.2561 H         1 <0>         0.1899
     32 H9         -0.2768    3.7881    7.3270 H         1 <0>         0.4337
     33 H10        -0.0636    0.6099    8.9791 H         1 <0>         0.1551
     34 H11        -0.4868    0.3068   11.4084 H         1 <0>         0.1414
     35 H12        -1.3298    2.2037   12.7312 H         1 <0>         0.1605
     36 H13        -1.3480    4.6730    9.3963 H         1 <0>         0.1584
@<TRIPOS>BOND
     1    1    2 1
     2    1   24 1
     3    1   25 1
     4    1   26 1
     5    2    7 ar
     6    2    3 ar
     7    3    4 ar
     8    3   27 1
     9    4    5 ar
    10    4   28 1
    11    5    6 ar
    12    5   29 1
    13    6    7 ar
    14    6   23 1
    15    7    8 1
    16    8    9 am
    17    8   30 1
    18    9   10 2
    19    9   11 1
    20   11   15 1
    21   11   12 2
    22   12   13 1
    23   12   31 1
    24   13   14 2
    25   14   15 1
    26   14   16 1
    27   16   17 1
    28   16   32 1
    29   17   22 ar
    30   17   18 ar
    31   18   19 ar
    32   18   33 1
    33   19   20 ar
    34   19   34 1
    35   20   21 ar
    36   20   35 1
    37   21   22 ar
    38   22   36 1
@<TRIPOS>MOLECULE
CHEMBL497343
   48    52     0     0     0
SMALL
USER_CHARGES

@<TRIPOS>ATOM
      1 C1         -0.0525    1.5020    0.0218 C.3       1 <0>        -0.1276
      2 C2         -0.0143   -0.0044    0.0078 C.2       1 <0>         0.0343
      3 C3         -0.6901   -0.7221   -0.9848 C.2       1 <0>        -0.2199
      4 C4         -0.6501   -2.0760   -0.9900 C.2       1 <0>         0.1405
      5 N1          0.0403   -2.7614   -0.0409 N.am      1 <0>        -0.4562
      6 C5          0.7061   -2.1142    0.9343 C.2       1 <0>         0.5257
      7 O1          1.3205   -2.7457    1.7780 O.2       1 <0>        -0.5250
      8 C6          0.6958   -0.6989    0.9753 C.2       1 <0>        -0.1827
      9 C7          1.4278    0.0282    2.0382 C.ar      1 <0>        -0.0435
     10 C8          2.5130    0.8529    1.6979 C.ar      1 <0>        -0.0486
     11 C9          3.2020    1.5308    2.6533 C.ar      1 <0>        -0.1227
     12 C10         2.8308    1.4117    4.0021 C.ar      1 <0>         0.2147
     13 C11         1.7355    0.5815    4.3570 C.ar      1 <0>        -0.2117
     14 C12         1.0334   -0.1058    3.3589 C.ar      1 <0>        -0.0256
     15 C13         1.3849    0.4811    5.7170 C.ar      1 <0>         0.2449
     16 N2          2.0879    1.1609    6.5985 N.ar      1 <0>        -0.5642
     17 C14         3.1100    1.9306    6.2300 C.ar      1 <0>         0.5695
     18 N3          3.4838    2.0633    4.9722 N.ar      1 <0>        -0.5737
     19 N4          3.8077    2.6195    7.2060 N.pl3     1 <0>        -0.8194
     20 C15         0.0591   -4.1612   -0.0775 C.ar      1 <0>         0.0885
     21 C16         1.0534   -4.8243   -0.7855 C.ar      1 <0>        -0.0684
     22 C17         1.0718   -6.2037   -0.8215 C.ar      1 <0>        -0.1110
     23 C18         0.0964   -6.9290   -0.1498 C.ar      1 <0>         0.1810
     24 C19        -0.8977   -6.2663    0.5582 C.ar      1 <0>        -0.1337
     25 C20        -0.9131   -4.8869    0.5991 C.ar      1 <0>        -0.0659
     26 N5          0.1150   -8.3305   -0.1868 N.pl3     1 <0>        -0.3287
     27 C21        -0.7725   -9.1543    0.4149 C.2       1 <0>         0.0526
     28 C22        -0.4060  -10.4273    0.1380 C.2       1 <0>        -0.2562
     29 C23         0.7430  -10.3810   -0.6589 C.2       1 <0>         0.0614
     30 N6          1.0528   -9.1251   -0.8587 N.2       1 <0>        -0.2892
     31 H1          0.7755    1.8919   -0.5702 H         1 <0>         0.0853
     32 H2         -0.9959    1.8455   -0.4025 H         1 <0>         0.0771
     33 H3          0.0353    1.8582    1.0482 H         1 <0>         0.0772
     34 H4         -1.2447   -0.1960   -1.7477 H         1 <0>         0.1521
     35 H5         -1.1758   -2.6199   -1.7609 H         1 <0>         0.1643
     36 H6          2.8042    0.9492    0.6624 H         1 <0>         0.1307
     37 H7          4.0345    2.1602    2.3754 H         1 <0>         0.1387
     38 H8          0.1960   -0.7370    3.6170 H         1 <0>         0.1310
     39 H9          0.5581   -0.1393    6.0299 H         1 <0>         0.1777
     40 H10         3.5491    2.5362    8.1372 H         1 <0>         0.4146
     41 H11         4.5556    3.1857    6.9591 H         1 <0>         0.4155
     42 H12         1.8117   -4.2603   -1.3082 H         1 <0>         0.1384
     43 H13         1.8446   -6.7192   -1.3723 H         1 <0>         0.1479
     44 H14        -1.6564   -6.8305    1.0802 H         1 <0>         0.1406
     45 H15        -1.6836   -4.3716    1.1533 H         1 <0>         0.1394
     46 H16        -1.6212   -8.8509    1.0099 H         1 <0>         0.1799
     47 H17        -0.9110  -11.3210    0.4734 H         1 <0>         0.1574
     48 H18         1.2796  -11.2346   -1.0461 H         1 <0>         0.1929
@<TRIPOS>BOND
     1    1    2 1
     2    1   31 1
     3    1   32 1
     4    1   33 1
     5    2    8 2
     6    2    3 1
     7    3    4 2
     8    3   34 1
     9    4    5 1
    10    4   35 1
    11    5    6 am
    12    5   20 1
    13    6    7 2
    14    6    8 1
    15    8    9 1
    16    9   14 ar
    17    9   10 ar
    18   10   11 ar
    19   10   36 1
    20   11   12 ar
    21   11   37 1
    22   12   18 ar
    23   12   13 ar
    24   13   14 ar
    25   13   15 ar
    26   14   38 1
    27   15   16 ar
    28   15   39 1
    29   16   17 ar
    30   17   18 ar
    31   17   19 1
    32   19   40 1
    33   19   41 1
    34   20   25 ar
    35   20   21 ar
    36   21   22 ar
    37   21   42 1
    38   22   23 ar
    39   22   43 1
    40   23   24 ar
    41   23   26 1
    42   24   25 ar
    43   24   44 1
    44   25   45 1
    45   26   30 1
    46   26   27 1
    47   27   28 2
    48   27   46 1
    49   28   29 1
    50   28   47 1
    51   29   30 2
    52   29   48 1
@<TRIPOS>MOLECULE
CHEMBL131661
   45    47     0     0     0
SMALL
USER_CHARGES

@<TRIPOS>ATOM
      1 C1          0.1361    1.3900   -0.0647 C.3       1 <0>        -0.1153
      2 C2          0.0861   -0.1161   -0.0679 C.ar      1 <0>        -0.0781
      3 C3          0.7580   -0.8267   -1.0456 C.ar      1 <0>        -0.1180
      4 C4          0.7142   -2.2070   -1.0514 C.ar      1 <0>        -0.0833
      5 C5         -0.0057   -2.8815   -0.0737 C.ar      1 <0>         0.1257
      6 C6         -0.6794   -2.1649    0.9069 C.ar      1 <0>        -0.0587
      7 C7         -0.6269   -0.7848    0.9102 C.ar      1 <0>        -0.1175
      8 C8         -1.4617   -2.8926    1.9697 C.3       1 <0>        -0.1083
      9 N1         -0.0524   -4.2792   -0.0769 N.am      1 <0>        -0.6714
     10 C9          0.3446   -4.9692    1.0106 C.2       1 <0>         0.6180
     11 O1          0.6595   -4.3763    2.0263 O.2       1 <0>        -0.5030
     12 C10         0.3972   -6.4305    0.9706 C.2       1 <0>        -0.3404
     13 C11         0.7648   -7.3320    1.9601 C.2       1 <0>         0.1883
     14 N2          0.7158   -8.6000    1.6386 N.2       1 <0>        -0.5545
     15 C12         0.3361   -8.9929    0.4361 C.2       1 <0>         0.2651
     16 S1         -0.0011   -7.5503   -0.3622 S.3       1 <0>         0.2649
     17 N3          0.2338  -10.2833   -0.0494 N.am      1 <0>        -0.6006
     18 C13        -0.1751  -10.4963   -1.3158 C.2       1 <0>         0.6116
     19 O2         -0.4543   -9.5529   -2.0319 O.2       1 <0>        -0.4770
     20 C14        -0.2836  -11.8644   -1.8306 C.2       1 <0>        -0.0956
     21 C15        -0.6777  -12.2196   -3.0893 C.2       1 <0>        -0.0897
     22 C16        -0.6354  -13.6213   -3.1448 C.2       1 <0>        -0.2265
     23 C17        -0.2225  -14.0552   -1.9333 C.2       1 <0>         0.0175
     24 O3         -0.0060  -12.9935   -1.1460 O.3       1 <0>        -0.1644
     25 C18         1.1974   -6.8757    3.3297 C.3       1 <0>        -0.0902
     26 C19         1.4464   -2.9805   -2.1176 C.3       1 <0>        -0.1127
     27 H1          0.9876    1.7241    0.5281 H         1 <0>         0.0716
     28 H2          0.2409    1.7522   -1.0874 H         1 <0>         0.0669
     29 H3         -0.7841    1.7832    0.3674 H         1 <0>         0.0671
     30 H4          1.3173   -0.3015   -1.8058 H         1 <0>         0.1259
     31 H5         -1.1469   -0.2271    1.6750 H         1 <0>         0.1256
     32 H6         -0.8522   -2.9881    2.8682 H         1 <0>         0.0863
     33 H7         -2.3669   -2.3317    2.2026 H         1 <0>         0.0615
     34 H8         -1.7320   -3.8843    1.6069 H         1 <0>         0.0563
     35 H9         -0.3706   -4.7520   -0.8618 H         1 <0>         0.4050
     36 H10         0.4563  -11.0353    0.5215 H         1 <0>         0.4334
     37 H11        -0.9666  -11.5513   -3.8869 H         1 <0>         0.1676
     38 H12        -0.8859  -14.2375   -3.9957 H         1 <0>         0.1644
     39 H13        -0.0852  -15.0878   -1.6483 H         1 <0>         0.2178
     40 H14         0.3269   -6.8093    3.9823 H         1 <0>         0.0841
     41 H15         1.9080   -7.5912    3.7434 H         1 <0>         0.0765
     42 H16         1.6702   -5.8965    3.2539 H         1 <0>         0.0987
     43 H17         2.4598   -3.1960   -1.7789 H         1 <0>         0.0726
     44 H18         0.9219   -3.9159   -2.3127 H         1 <0>         0.0619
     45 H19         1.4870   -2.3891   -3.0323 H         1 <0>         0.0709
@<TRIPOS>BOND
     1    1    2 1
     2    1   27 1
     3    1   28 1
     4    1   29 1
     5    2    7 ar
     6    2    3 ar
     7    3    4 ar
     8    3   30 1
     9    4    5 ar
    10    4   26 1
    11    5    6 ar
    12    5    9 1
    13    6    7 ar
    14    6    8 1
    15    7   31 1
    16    8   32 1
    17    8   33 1
    18    8   34 1
    19    9   10 am
    20    9   35 1
    21   10   11 2
    22   10   12 1
    23   12   16 1
    24   12   13 2
    25   13   14 1
    26   13   25 1
    27   14   15 2
    28   15   16 1
    29   15   17 1
    30   17   18 am
    31   17   36 1
    32   18   19 2
    33   18   20 1
    34   20   24 1
    35   20   21 2
    36   21   22 1
    37   21   37 1
    38   22   23 2
    39   22   38 1
    40   23   24 1
    41   23   39 1
    42   25   40 1
    43   25   41 1
    44   25   42 1
    45   26   43 1
    46   26   44 1
    47   26   45 1
@<TRIPOS>MOLECULE
CHEMBL272673
   65    68     0     0     0
SMALL
USER_CHARGES

@<TRIPOS>ATOM
      1 C1         -0.2045    1.6189   -0.1852 C.3       1 <0>        -0.1303
      2 C2         -0.0962    0.1177   -0.1107 C.ar      1 <0>        -0.0252
      3 C3         -0.2055   -0.6400   -1.2591 C.ar      1 <0>        -0.1091
      4 C4         -0.1070   -2.0171   -1.1961 C.ar      1 <0>        -0.1050
      5 C5          0.1029   -2.6485    0.0244 C.ar      1 <0>         0.1293
      6 C6          0.2140   -1.8967    1.1836 C.ar      1 <0>        -0.0796
      7 C7          0.1203   -0.5063    1.1191 C.ar      1 <0>        -0.1246
      8 C8          0.2437    0.3033    2.3499 C.2       1 <0>         0.5645
      9 O1          0.0847    1.5076    2.3039 O.2       1 <0>        -0.5122
     10 N1          0.5326   -0.2939    3.5231 N.am      1 <0>        -0.6518
     11 C9          0.7603    0.4827    4.6674 C.ar      1 <0>        -0.0203
     12 C10         1.2320    1.7878    4.5604 C.ar      1 <0>         0.1947
     13 N2          1.4352    2.4908    5.6622 N.ar      1 <0>        -0.5499
     14 C11         1.1957    1.9673    6.8549 C.ar      1 <0>         0.5501
     15 N3          0.7466    0.7292    6.9948 N.ar      1 <0>        -0.5457
     16 C12         0.5147   -0.0309    5.9375 C.ar      1 <0>         0.1731
     17 N4          1.4214    2.7352    7.9867 N.pl3     1 <0>        -0.6998
     18 C13         1.1628    2.1751    9.3155 C.3       1 <0>         0.1419
     19 C14         1.4910    3.2213   10.3826 C.3       1 <0>         0.0428
     20 N5          1.2317    2.6596   11.7150 N.3       1 <0>        -0.5321
     21 C15        -0.2036    2.4084   11.9106 C.3       1 <0>         0.0115
     22 C16        -0.4217    1.7698   13.2849 C.3       1 <0>         0.0630
     23 O2          0.1207    2.6256   14.2942 O.3       1 <0>        -0.3852
     24 C17         1.5170    2.8909   14.1347 C.3       1 <0>         0.0631
     25 C18         1.7547    3.5409   12.7691 C.3       1 <0>         0.0182
     26 N6          0.2014   -4.0426    0.0829 N.am      1 <0>        -0.6673
     27 C19        -0.2754   -4.7076    1.1538 C.2       1 <0>         0.5630
     28 O3         -0.8779   -4.1079    2.0229 O.2       1 <0>        -0.5096
     29 C20        -0.0657   -6.1660    1.2717 C.ar      1 <0>        -0.1397
     30 C21         0.6307   -6.8568    0.2783 C.ar      1 <0>        -0.0539
     31 C22         0.8228   -8.2177    0.3945 C.ar      1 <0>        -0.1228
     32 C23         0.3270   -8.8984    1.4926 C.ar      1 <0>        -0.0417
     33 C24        -0.3640   -8.2199    2.4805 C.ar      1 <0>        -0.1883
     34 C25        -0.5582   -6.8576    2.3795 C.ar      1 <0>        -0.0064
     35 C26        -0.9004   -8.9694    3.6728 C.3       1 <0>         0.5099
     36 F1         -0.5764  -10.3254    3.5556 F         1 <0>        -0.1742
     37 F2         -0.3318   -8.4535    4.8424 F         1 <0>        -0.1725
     38 F3         -2.2908   -8.8252    3.7274 F         1 <0>        -0.1723
     39 H1          0.7944    2.0546   -0.2081 H         1 <0>         0.0765
     40 H2         -0.7442    1.8998   -1.0896 H         1 <0>         0.0615
     41 H3         -0.7420    1.9883    0.6881 H         1 <0>         0.1032
     42 H4         -0.3689   -0.1551   -2.2102 H         1 <0>         0.1386
     43 H5         -0.1936   -2.6047   -2.0981 H         1 <0>         0.1342
     44 H6          0.3771   -2.3853    2.1328 H         1 <0>         0.1374
     45 H7          0.5830   -1.2612    3.5756 H         1 <0>         0.4129
     46 H8          1.4296    2.2205    3.5909 H         1 <0>         0.1844
     47 H9          0.1438   -1.0380    6.0582 H         1 <0>         0.1700
     48 H10         1.7505    3.6434    7.8988 H         1 <0>         0.4136
     49 H11         0.1125    1.8939    9.3931 H         1 <0>         0.0673
     50 H12         1.7868    1.2942    9.4662 H         1 <0>         0.0774
     51 H13         2.5412    3.5024   10.3049 H         1 <0>         0.0844
     52 H14         0.8669    4.1021   10.2318 H         1 <0>         0.0436
     53 H15        -0.7487    3.3507   11.8566 H         1 <0>         0.0454
     54 H16        -0.5641    1.7336   11.1343 H         1 <0>         0.0915
     55 H17        -1.4893    1.6341   13.4579 H         1 <0>         0.0999
     56 H18         0.0793    0.8023   13.3203 H         1 <0>         0.0620
     57 H19         1.8514    3.5661   14.9223 H         1 <0>         0.1000
     58 H20         2.0743    1.9561   14.1948 H         1 <0>         0.0616
     59 H21         2.8236    3.6927   12.6194 H         1 <0>         0.0886
     60 H22         1.2409    4.5013   12.7287 H         1 <0>         0.0454
     61 H23         0.6129   -4.5308   -0.6474 H         1 <0>         0.4129
     62 H24         1.0179   -6.3268   -0.5794 H         1 <0>         0.1374
     63 H25         1.3611   -8.7534   -0.3735 H         1 <0>         0.1467
     64 H26         0.4798   -9.9640    1.5785 H         1 <0>         0.1477
     65 H27        -1.0939   -6.3284    3.1537 H         1 <0>         0.1504
@<TRIPOS>BOND
     1    1    2 1
     2    1   39 1
     3    1   40 1
     4    1   41 1
     5    2    7 ar
     6    2    3 ar
     7    3    4 ar
     8    3   42 1
     9    4    5 ar
    10    4   43 1
    11    5    6 ar
    12    5   26 1
    13    6    7 ar
    14    6   44 1
    15    7    8 1
    16    8    9 2
    17    8   10 am
    18   10   11 1
    19   10   45 1
    20   11   16 ar
    21   11   12 ar
    22   12   13 ar
    23   12   46 1
    24   13   14 ar
    25   14   15 ar
    26   14   17 1
    27   15   16 ar
    28   16   47 1
    29   17   18 1
    30   17   48 1
    31   18   19 1
    32   18   49 1
    33   18   50 1
    34   19   20 1
    35   19   51 1
    36   19   52 1
    37   20   25 1
    38   20   21 1
    39   21   22 1
    40   21   53 1
    41   21   54 1
    42   22   23 1
    43   22   55 1
    44   22   56 1
    45   23   24 1
    46   24   25 1
    47   24   57 1
    48   24   58 1
    49   25   59 1
    50   25   60 1
    51   26   27 am
    52   26   61 1
    53   27   28 2
    54   27   29 1
    55   29   34 ar
    56   29   30 ar
    57   30   31 ar
    58   30   62 1
    59   31   32 ar
    60   31   63 1
    61   32   33 ar
    62   32   64 1
    63   33   34 ar
    64   33   35 1
    65   34   65 1
    66   35   36 1
    67   35   37 1
    68   35   38 1
@<TRIPOS>MOLECULE
CHEMBL272673__1
   66    69     0     0     0
SMALL
USER_CHARGES

@<TRIPOS>ATOM
      1 C1         -0.2045    1.6189   -0.1852 C.3       1 <0>        -0.1308
      2 C2         -0.0962    0.1177   -0.1107 C.ar      1 <0>        -0.0234
      3 C3         -0.2055   -0.6400   -1.2591 C.ar      1 <0>        -0.1075
      4 C4         -0.1070   -2.0171   -1.1961 C.ar      1 <0>        -0.1007
      5 C5          0.1029   -2.6485    0.0244 C.ar      1 <0>         0.1310
      6 C6          0.2140   -1.8967    1.1836 C.ar      1 <0>        -0.0795
      7 C7          0.1203   -0.5063    1.1191 C.ar      1 <0>        -0.1307
      8 C8          0.2437    0.3033    2.3499 C.2       1 <0>         0.5692
      9 O1          0.0847    1.5076    2.3039 O.2       1 <0>        -0.5089
     10 N1          0.5326   -0.2939    3.5231 N.am      1 <0>        -0.6565
     11 C9          0.7603    0.4827    4.6674 C.ar      1 <0>         0.0079
     12 C10         1.2320    1.7878    4.5604 C.ar      1 <0>         0.1936
     13 N2          1.4352    2.4908    5.6622 N.ar      1 <0>        -0.5375
     14 C11         1.1957    1.9673    6.8549 C.ar      1 <0>         0.5377
     15 N3          0.7466    0.7292    6.9948 N.ar      1 <0>        -0.5489
     16 C12         0.5147   -0.0309    5.9375 C.ar      1 <0>         0.1668
     17 N4          1.4214    2.7352    7.9867 N.pl3     1 <0>        -0.7050
     18 C13         1.1628    2.1751    9.3155 C.3       1 <0>         0.1199
     19 C14         1.4910    3.2213   10.3826 C.3       1 <0>        -0.0229
     20 N5          1.2317    2.6596   11.7150 N.4       1 <0>        -0.3804
     21 C15        -0.2057    2.3926   11.8629 C.3       1 <0>        -0.0512
     22 C16        -0.4732    1.8073   13.2518 C.3       1 <0>         0.0369
     23 O2         -0.0035    2.7210   14.2470 O.3       1 <0>        -0.3562
     24 C17         1.3878    3.0315   14.1299 C.3       1 <0>         0.0360
     25 C18         1.6588    3.6190   12.7427 C.3       1 <0>        -0.0426
     26 N6          0.2014   -4.0426    0.0829 N.am      1 <0>        -0.6675
     27 C19        -0.2754   -4.7076    1.1538 C.2       1 <0>         0.5656
     28 O3         -0.8779   -4.1079    2.0229 O.2       1 <0>        -0.5137
     29 C20        -0.0657   -6.1660    1.2717 C.ar      1 <0>        -0.1422
     30 C21         0.6307   -6.8568    0.2783 C.ar      1 <0>        -0.0532
     31 C22         0.8228   -8.2177    0.3945 C.ar      1 <0>        -0.1214
     32 C23         0.3270   -8.8984    1.4926 C.ar      1 <0>        -0.0399
     33 C24        -0.3640   -8.2199    2.4805 C.ar      1 <0>        -0.1886
     34 C25        -0.5582   -6.8576    2.3795 C.ar      1 <0>        -0.0068
     35 C26        -0.9004   -8.9694    3.6728 C.3       1 <0>         0.5101
     36 F1         -0.5764  -10.3254    3.5556 F         1 <0>        -0.1729
     37 F2         -0.3318   -8.4535    4.8424 F         1 <0>        -0.1742
     38 F3         -2.2908   -8.8252    3.7274 F         1 <0>        -0.1721
     39 H1          0.7944    2.0546   -0.2081 H         1 <0>         0.0770
     40 H2         -0.7442    1.8998   -1.0896 H         1 <0>         0.0641
     41 H3         -0.7420    1.9883    0.6881 H         1 <0>         0.1015
     42 H4         -0.3689   -0.1551   -2.2102 H         1 <0>         0.1408
     43 H5         -0.1936   -2.6047   -2.0981 H         1 <0>         0.1367
     44 H6          0.3771   -2.3853    2.1328 H         1 <0>         0.1365
     45 H7          0.5830   -1.2612    3.5756 H         1 <0>         0.4165
     46 H8          1.4296    2.2205    3.5909 H         1 <0>         0.1907
     47 H9          0.1438   -1.0380    6.0582 H         1 <0>         0.1755
     48 H10         1.7505    3.6434    7.8988 H         1 <0>         0.4204
     49 H11         0.1125    1.8939    9.3931 H         1 <0>         0.0861
     50 H12         1.7868    1.2942    9.4662 H         1 <0>         0.0866
     51 H13         2.5412    3.5024   10.3049 H         1 <0>         0.1409
     52 H14         0.8669    4.1021   10.2318 H         1 <0>         0.1390
     53 H15        -0.7621    3.3226   11.7469 H         1 <0>         0.1414
     54 H16        -0.5236    1.6809   11.1010 H         1 <0>         0.1459
     55 H17        -1.5439    1.6485   13.3798 H         1 <0>         0.1432
     56 H18         0.0511    0.8571   13.3535 H         1 <0>         0.0829
     57 H19         1.6640    3.7587   14.8935 H         1 <0>         0.1433
     58 H20         1.9758    2.1232   14.2617 H         1 <0>         0.0823
     59 H21         2.7250    3.8178   12.6339 H         1 <0>         0.1444
     60 H22         1.1017    4.5486   12.6264 H         1 <0>         0.1407
     61 H23         0.6129   -4.5308   -0.6474 H         1 <0>         0.4144
     62 H24         1.0179   -6.3268   -0.5794 H         1 <0>         0.1378
     63 H25         1.3611   -8.7534   -0.3735 H         1 <0>         0.1480
     64 H26         0.4798   -9.9640    1.5785 H         1 <0>         0.1488
     65 H27        -1.0939   -6.3284    3.1537 H         1 <0>         0.1492
     66 H28         1.7468    1.7989   11.8233 H         1 <0>         0.4258
@<TRIPOS>BOND
     1    1    2 1
     2    1   39 1
     3    1   40 1
     4    1   41 1
     5    2    7 ar
     6    2    3 ar
     7    3    4 ar
     8    3   42 1
     9    4    5 ar
    10    4   43 1
    11    5    6 ar
    12    5   26 1
    13    6    7 ar
    14    6   44 1
    15    7    8 1
    16    8    9 2
    17    8   10 am
    18   10   11 1
    19   10   45 1
    20   11   16 ar
    21   11   12 ar
    22   12   13 ar
    23   12   46 1
    24   13   14 ar
    25   14   15 ar
    26   14   17 1
    27   15   16 ar
    28   16   47 1
    29   17   18 1
    30   17   48 1
    31   18   19 1
    32   18   49 1
    33   18   50 1
    34   19   20 1
    35   19   51 1
    36   19   52 1
    37   20   25 1
    38   20   21 1
    39   20   66 1
    40   21   22 1
    41   21   53 1
    42   21   54 1
    43   22   23 1
    44   22   55 1
    45   22   56 1
    46   23   24 1
    47   24   25 1
    48   24   57 1
    49   24   58 1
    50   25   59 1
    51   25   60 1
    52   26   27 am
    53   26   61 1
    54   27   28 2
    55   27   29 1
    56   29   34 ar
    57   29   30 ar
    58   30   31 ar
    59   30   62 1
    60   31   32 ar
    61   31   63 1
    62   32   33 ar
    63   32   64 1
    64   33   34 ar
    65   33   35 1
    66   34   65 1
    67   35   36 1
    68   35   37 1
    69   35   38 1
@<TRIPOS>MOLECULE
CHEMBL567241
   63    68     0     0     0
SMALL
USER_CHARGES

@<TRIPOS>ATOM
      1 C1          0.1388    0.6142   -0.4222 C.3       1 <0>         0.0120
      2 N1         -0.1404   -0.8180   -0.2523 N.3       1 <0>        -0.5297
      3 C2         -1.5861   -1.0675   -0.1786 C.3       1 <0>         0.0419
      4 C3         -2.1680   -0.3268    1.0301 C.3       1 <0>         0.0731
      5 N2         -1.4078   -0.7169    2.2273 N.am      1 <0>        -0.6067
      6 C4          0.0593   -0.6244    2.1808 C.3       1 <0>         0.0703
      7 C5          0.5535   -1.3533    0.9267 C.3       1 <0>         0.0552
      8 C6          2.0607   -1.1399    0.7728 C.3       1 <0>         0.1480
      9 N3          2.5114   -1.7324   -0.4890 N.pl3     1 <0>        -0.6789
     10 C7          3.8463   -1.6636   -0.8479 C.ar      1 <0>         0.5993
     11 N4          4.7036   -1.0627   -0.0356 N.ar      1 <0>        -0.5786
     12 C8          5.9883   -0.9778   -0.3451 C.ar      1 <0>         0.2235
     13 C9          6.4351   -1.5255   -1.5335 C.ar      1 <0>        -0.3100
     14 C10         5.5090   -2.1513   -2.3673 C.ar      1 <0>         0.4508
     15 N5          4.2360   -2.2047   -1.9921 N.ar      1 <0>        -0.5908
     16 N6          5.9143   -2.7167   -3.5747 N.pl3     1 <0>        -0.4404
     17 C11         7.1847   -2.7408   -4.0713 C.2       1 <0>         0.2748
     18 N7          7.2029   -3.3490   -5.2206 N.2       1 <0>        -0.4715
     19 C12         5.9481   -3.7579   -5.5432 C.ar      1 <0>         0.0424
     20 C13         5.1042   -3.3639   -4.4911 C.ar      1 <0>         0.0571
     21 C14         3.7493   -3.6558   -4.5436 C.ar      1 <0>        -0.0887
     22 C15         3.2353   -4.3351   -5.6282 C.ar      1 <0>        -0.1033
     23 C16         4.0647   -4.7294   -6.6679 C.ar      1 <0>        -0.1199
     24 C17         5.4105   -4.4413   -6.6365 C.ar      1 <0>        -0.0668
     25 C18        -2.0389   -1.1480    3.3374 C.2       1 <0>         0.5659
     26 O1         -3.2538   -1.1593    3.3804 O.2       1 <0>        -0.5268
     27 C19        -1.2541   -1.6071    4.5024 C.ar      1 <0>        -0.1300
     28 C20        -0.2005   -0.8135    4.9905 C.ar      1 <0>        -0.0989
     29 C21         0.5347   -1.2134    6.0590 C.ar      1 <0>        -0.1028
     30 C22         0.2475   -2.4361    6.6932 C.ar      1 <0>        -0.0369
     31 C23         0.9945   -2.8710    7.8006 C.ar      1 <0>        -0.1107
     32 C24         0.6929   -4.0587    8.3938 C.ar      1 <0>        -0.1050
     33 C25        -0.3482   -4.8544    7.9193 C.ar      1 <0>        -0.1152
     34 C26        -1.0938   -4.4665    6.8490 C.ar      1 <0>        -0.0987
     35 C27        -0.8122   -3.2453    6.2104 C.ar      1 <0>        -0.0580
     36 C28        -1.5653   -2.8127    5.1086 C.ar      1 <0>        -0.0428
     37 H1          1.2110    0.7627   -0.5503 H         1 <0>         0.0731
     38 H2         -0.3871    0.9849   -1.3021 H         1 <0>         0.0729
     39 H3         -0.2005    1.1576    0.4596 H         1 <0>         0.0341
     40 H4         -2.0641   -0.7082   -1.0900 H         1 <0>         0.0952
     41 H5         -1.7656   -2.1372   -0.0707 H         1 <0>         0.0834
     42 H6         -2.0824    0.7489    0.8764 H         1 <0>         0.0730
     43 H7         -3.2158   -0.5992    1.1568 H         1 <0>         0.1013
     44 H8          0.3590    0.4227    2.1377 H         1 <0>         0.0793
     45 H9          0.4841   -1.0935    3.0683 H         1 <0>         0.1064
     46 H10         0.3442   -2.4190    1.0192 H         1 <0>         0.0983
     47 H11         2.2781   -0.0718    0.7707 H         1 <0>         0.0741
     48 H12         2.5817   -1.6151    1.6039 H         1 <0>         0.0783
     49 H13         1.8743   -2.1730   -1.0728 H         1 <0>         0.4229
     50 H14         6.6794   -0.4858    0.3232 H         1 <0>         0.1783
     51 H15         7.4776   -1.4696   -1.8098 H         1 <0>         0.1503
     52 H16         8.0489   -2.3166   -3.5818 H         1 <0>         0.2229
     53 H17         3.0985   -3.3521   -3.7369 H         1 <0>         0.1392
     54 H18         2.1802   -4.5619   -5.6681 H         1 <0>         0.1330
     55 H19         3.6502   -5.2611   -7.5117 H         1 <0>         0.1331
     56 H20         6.0503   -4.7524   -7.4490 H         1 <0>         0.1333
     57 H21         0.0267    0.1261    4.5088 H         1 <0>         0.1287
     58 H22         1.3407   -0.5931    6.4223 H         1 <0>         0.1350
     59 H23         1.8048   -2.2659    8.1796 H         1 <0>         0.1308
     60 H24         1.2696   -4.3895    9.2450 H         1 <0>         0.1268
     61 H25        -0.5661   -5.7927    8.4078 H         1 <0>         0.1271
     62 H26        -1.8975   -5.0932    6.4916 H         1 <0>         0.1307
     63 H27        -2.3780   -3.4170    4.7334 H         1 <0>         0.1356
@<TRIPOS>BOND
     1    1    2 1
     2    1   37 1
     3    1   38 1
     4    1   39 1
     5    2    7 1
     6    2    3 1
     7    3    4 1
     8    3   40 1
     9    3   41 1
    10    4    5 1
    11    4   42 1
    12    4   43 1
    13    5    6 1
    14    5   25 am
    15    6    7 1
    16    6   44 1
    17    6   45 1
    18    7    8 1
    19    7   46 1
    20    8    9 1
    21    8   47 1
    22    8   48 1
    23    9   10 1
    24    9   49 1
    25   10   15 ar
    26   10   11 ar
    27   11   12 ar
    28   12   13 ar
    29   12   50 1
    30   13   14 ar
    31   13   51 1
    32   14   15 ar
    33   14   16 1
    34   16   20 1
    35   16   17 1
    36   17   18 2
    37   17   52 1
    38   18   19 1
    39   19   24 ar
    40   19   20 ar
    41   20   21 ar
    42   21   22 ar
    43   21   53 1
    44   22   23 ar
    45   22   54 1
    46   23   24 ar
    47   23   55 1
    48   24   56 1
    49   25   26 2
    50   25   27 1
    51   27   36 ar
    52   27   28 ar
    53   28   29 ar
    54   28   57 1
    55   29   30 ar
    56   29   58 1
    57   30   35 ar
    58   30   31 ar
    59   31   32 ar
    60   31   59 1
    61   32   33 ar
    62   32   60 1
    63   33   34 ar
    64   33   61 1
    65   34   35 ar
    66   34   62 1
    67   35   36 ar
    68   36   63 1
@<TRIPOS>MOLECULE
CHEMBL567241__1
   64    69     0     0     0
SMALL
USER_CHARGES

@<TRIPOS>ATOM
      1 C1          0.1022    0.5638   -0.3677 C.3       1 <0>        -0.0658
      2 N1         -0.1852   -0.8649   -0.1829 N.4       1 <0>        -0.3833
      3 C2         -1.6335   -1.0559   -0.0347 C.3       1 <0>        -0.0213
      4 C3         -2.1468   -0.1874    1.1186 C.3       1 <0>         0.0875
      5 N2         -1.3660   -0.5045    2.3244 N.am      1 <0>        -0.6281
      6 C4          0.1015   -0.4969    2.2220 C.3       1 <0>         0.0830
      7 C5          0.5086   -1.3508    1.0166 C.3       1 <0>         0.0008
      8 C6          2.0209   -1.2498    0.8073 C.3       1 <0>         0.1213
      9 N3          2.3939   -1.9675   -0.4141 N.pl3     1 <0>        -0.7189
     10 C7          3.7187   -2.0150   -0.8117 C.ar      1 <0>         0.5929
     11 N4          4.6371   -1.4102   -0.0724 N.ar      1 <0>        -0.5733
     12 C8          5.9144   -1.4345   -0.4206 C.ar      1 <0>         0.2251
     13 C9          6.2886   -2.1017   -1.5724 C.ar      1 <0>        -0.2865
     14 C10         5.2994   -2.7284   -2.3294 C.ar      1 <0>         0.4577
     15 N5          4.0377   -2.6684   -1.9185 N.ar      1 <0>        -0.5864
     16 N6          5.6304   -3.4119   -3.4977 N.pl3     1 <0>        -0.4441
     17 C11         6.8809   -3.5584   -4.0233 C.2       1 <0>         0.2755
     18 N7          6.8248   -4.2544   -5.1203 N.2       1 <0>        -0.4612
     19 C12         5.5373   -4.6038   -5.3768 C.ar      1 <0>         0.0452
     20 C13         4.7530   -4.0741   -4.3382 C.ar      1 <0>         0.0536
     21 C14         3.3813   -4.2793   -4.3323 C.ar      1 <0>        -0.0951
     22 C15         2.7919   -5.0060   -5.3455 C.ar      1 <0>        -0.1001
     23 C16         3.5621   -5.5342   -6.3713 C.ar      1 <0>        -0.1177
     24 C17         4.9238   -5.3337   -6.3977 C.ar      1 <0>        -0.0589
     25 C18        -1.9779   -0.7933    3.4900 C.2       1 <0>         0.5753
     26 O1         -3.1888   -0.7266    3.5738 O.2       1 <0>        -0.4951
     27 C19        -1.1767   -1.1911    4.6663 C.ar      1 <0>        -0.1343
     28 C20        -1.5285   -2.3427    5.3932 C.ar      1 <0>        -0.0839
     29 C21        -0.8084   -2.7286    6.4770 C.ar      1 <0>        -0.0906
     30 C22         0.3059   -1.9736    6.8870 C.ar      1 <0>        -0.0336
     31 C23         1.0666   -2.3532    8.0054 C.ar      1 <0>        -0.1088
     32 C24         2.1397   -1.6029    8.3780 C.ar      1 <0>        -0.0987
     33 C25         2.4982   -0.4595    7.6665 C.ar      1 <0>        -0.1054
     34 C26         1.7857   -0.0603    6.5780 C.ar      1 <0>        -0.1064
     35 C27         0.6707   -0.8105    6.1625 C.ar      1 <0>        -0.0585
     36 C28        -0.0819   -0.4304    5.0411 C.ar      1 <0>        -0.0757
     37 H1          1.1764    0.7060   -0.4858 H         1 <0>         0.1284
     38 H2         -0.4123    0.9257   -1.2579 H         1 <0>         0.1324
     39 H3         -0.2442    1.1197    0.5035 H         1 <0>         0.1286
     40 H4         -2.1346   -0.7666   -0.9584 H         1 <0>         0.1498
     41 H5         -1.8419   -2.1042    0.1791 H         1 <0>         0.1371
     42 H6         -2.0217    0.8659    0.8677 H         1 <0>         0.0998
     43 H7         -3.2004   -0.4016    1.2976 H         1 <0>         0.1393
     44 H8          0.4536    0.5252    2.0825 H         1 <0>         0.1057
     45 H9          0.5342   -0.9158    3.1304 H         1 <0>         0.1435
     46 H10         0.2354   -2.3902    1.1985 H         1 <0>         0.1520
     47 H11         2.3056   -0.2017    0.7142 H         1 <0>         0.1011
     48 H12         2.5360   -1.6918    1.6602 H         1 <0>         0.1189
     49 H13         1.7123   -2.4095   -0.9443 H         1 <0>         0.4069
     50 H14         6.6558   -0.9383    0.1882 H         1 <0>         0.1868
     51 H15         7.3236   -2.1363   -1.8790 H         1 <0>         0.1595
     52 H16         7.7849   -3.1549   -3.5916 H         1 <0>         0.2261
     53 H17         2.7763   -3.8713   -3.5361 H         1 <0>         0.1327
     54 H18         1.7237   -5.1653   -5.3400 H         1 <0>         0.1332
     55 H19         3.0888   -6.1018   -7.1589 H         1 <0>         0.1371
     56 H20         5.5172   -5.7488   -7.1989 H         1 <0>         0.1381
     57 H21        -2.3829   -2.9272    5.0853 H         1 <0>         0.1324
     58 H22        -1.0909   -3.6153    7.0251 H         1 <0>         0.1393
     59 H23         0.8009   -3.2363    8.5675 H         1 <0>         0.1346
     60 H24         2.7220   -1.8981    9.2384 H         1 <0>         0.1315
     61 H25         3.3537    0.1184    7.9838 H         1 <0>         0.1310
     62 H26         2.0745    0.8281    6.0361 H         1 <0>         0.1313
     63 H27         0.1876    0.4507    4.4777 H         1 <0>         0.1336
     64 H28         0.1386   -1.3788   -0.9886 H         1 <0>         0.4232
@<TRIPOS>BOND
     1    1    2 1
     2    1   37 1
     3    1   38 1
     4    1   39 1
     5    2    7 1
     6    2    3 1
     7    2   64 1
     8    3    4 1
     9    3   40 1
    10    3   41 1
    11    4    5 1
    12    4   42 1
    13    4   43 1
    14    5    6 1
    15    5   25 am
    16    6    7 1
    17    6   44 1
    18    6   45 1
    19    7    8 1
    20    7   46 1
    21    8    9 1
    22    8   47 1
    23    8   48 1
    24    9   10 1
    25    9   49 1
    26   10   15 ar
    27   10   11 ar
    28   11   12 ar
    29   12   13 ar
    30   12   50 1
    31   13   14 ar
    32   13   51 1
    33   14   15 ar
    34   14   16 1
    35   16   20 1
    36   16   17 1
    37   17   18 2
    38   17   52 1
    39   18   19 1
    40   19   24 ar
    41   19   20 ar
    42   20   21 ar
    43   21   22 ar
    44   21   53 1
    45   22   23 ar
    46   22   54 1
    47   23   24 ar
    48   23   55 1
    49   24   56 1
    50   25   26 2
    51   25   27 1
    52   27   36 ar
    53   27   28 ar
    54   28   29 ar
    55   28   57 1
    56   29   30 ar
    57   29   58 1
    58   30   35 ar
    59   30   31 ar
    60   31   32 ar
    61   31   59 1
    62   32   33 ar
    63   32   60 1
    64   33   34 ar
    65   33   61 1
    66   34   35 ar
    67   34   62 1
    68   35   36 ar
    69   36   63 1
@<TRIPOS>MOLECULE
CHEMBL567241__2
   63    68     0     0     0
SMALL
USER_CHARGES

@<TRIPOS>ATOM
      1 C1          0.0575    1.4770    0.9204 C.3       1 <0>         0.0209
      2 N1          0.0214    0.0380    0.6272 N.3       1 <0>        -0.5359
      3 C2         -1.3621   -0.4516    0.5627 C.3       1 <0>         0.0406
      4 C3         -1.3638   -1.9057    0.0792 C.3       1 <0>         0.1007
      5 N2         -0.4673   -2.6869    0.9448 N.am      1 <0>        -0.6101
      6 C4          0.8967   -2.1842    1.1683 C.3       1 <0>         0.1219
      7 C5          0.8094   -0.7191    1.6089 C.3       1 <0>         0.0560
      8 C6          2.2178   -0.1281    1.6982 C.3       1 <0>         0.1450
      9 N3          2.8107   -0.0745    0.3597 N.pl3     1 <0>        -0.6801
     10 C7          4.0478    0.5176    0.1740 C.ar      1 <0>         0.5990
     11 N4          4.6841    1.0260    1.2191 N.ar      1 <0>        -0.5781
     12 C8          5.8694    1.5999    1.0805 C.ar      1 <0>         0.2239
     13 C9          6.4457    1.6662   -0.1747 C.ar      1 <0>        -0.3096
     14 C10         5.7518    1.1223   -1.2550 C.ar      1 <0>         0.4503
     15 N5          4.5687    0.5570   -1.0430 N.ar      1 <0>        -0.5906
     16 N6          6.2940    1.1670   -2.5378 N.pl3     1 <0>        -0.4402
     17 C11         7.4971    1.7054   -2.8899 C.2       1 <0>         0.2751
     18 N7          7.6870    1.5743   -4.1697 N.2       1 <0>        -0.4717
     19 C12         6.6216    0.9438   -4.7294 C.ar      1 <0>         0.0425
     20 C13         5.7153    0.6683   -3.6916 C.ar      1 <0>         0.0573
     21 C14         4.5227    0.0165   -3.9684 C.ar      1 <0>        -0.0885
     22 C15         4.2319   -0.3620   -5.2623 C.ar      1 <0>        -0.1036
     23 C16         5.1248   -0.0955   -6.2901 C.ar      1 <0>        -0.1201
     24 C17         6.3095    0.5576   -6.0351 C.ar      1 <0>        -0.0667
     25 C18        -0.8849   -3.8329    1.5183 C.2       1 <0>         0.5627
     26 O1         -0.1671   -4.4134    2.3093 O.2       1 <0>        -0.5281
     27 C19        -2.2152   -4.3836    1.1857 C.ar      1 <0>        -0.1243
     28 C20        -3.0182   -4.9308    2.2027 C.ar      1 <0>        -0.0746
     29 C21        -4.2435   -5.4426    1.9223 C.ar      1 <0>        -0.1053
     30 C22        -4.7257   -5.4310    0.6005 C.ar      1 <0>        -0.0354
     31 C23        -5.9907   -5.9549    0.2860 C.ar      1 <0>        -0.1102
     32 C24        -6.4305   -5.9293   -1.0021 C.ar      1 <0>        -0.1057
     33 C25        -5.6442   -5.3906   -2.0188 C.ar      1 <0>        -0.1154
     34 C26        -4.4137   -4.8739   -1.7528 C.ar      1 <0>        -0.1004
     35 C27        -3.9256   -4.8822   -0.4337 C.ar      1 <0>        -0.0603
     36 C28        -2.6641   -4.3521   -0.1240 C.ar      1 <0>        -0.0683
     37 H1          1.0926    1.8179    0.9403 H         1 <0>         0.0747
     38 H2         -0.4887    2.0189    0.1483 H         1 <0>         0.0721
     39 H3         -0.4047    1.6620    1.8901 H         1 <0>         0.0294
     40 H4         -1.8138   -0.3971    1.5533 H         1 <0>         0.0430
     41 H5         -1.9336    0.1636   -0.1324 H         1 <0>         0.0934
     42 H6         -2.3743   -2.3101    0.1385 H         1 <0>         0.0997
     43 H7         -1.0087   -1.9496   -0.9504 H         1 <0>         0.0816
     44 H8          1.3807   -2.7727    1.9476 H         1 <0>         0.1018
     45 H9          1.4691   -2.2549    0.2433 H         1 <0>         0.0769
     46 H10         0.3275   -0.6609    2.5849 H         1 <0>         0.0687
     47 H11         2.1637    0.8788    2.1122 H         1 <0>         0.0801
     48 H12         2.8341   -0.7537    2.3439 H         1 <0>         0.0789
     49 H13         2.3363   -0.4541   -0.3965 H         1 <0>         0.4213
     50 H14         6.3802    2.0118    1.9382 H         1 <0>         0.1783
     51 H15         7.4113    2.1291   -0.3152 H         1 <0>         0.1503
     52 H16         8.1902    2.1725   -2.2060 H         1 <0>         0.2229
     53 H17         3.8237   -0.1945   -3.1726 H         1 <0>         0.1389
     54 H18         3.3030   -0.8694   -5.4769 H         1 <0>         0.1325
     55 H19         4.8857   -0.3972   -7.2991 H         1 <0>         0.1330
     56 H20         7.0004    0.7607   -6.8400 H         1 <0>         0.1333
     57 H21        -2.6549   -4.9441    3.2197 H         1 <0>         0.1317
     58 H22        -4.8485   -5.8593    2.7140 H         1 <0>         0.1348
     59 H23        -6.6114   -6.3764    1.0628 H         1 <0>         0.1304
     60 H24        -7.4036   -6.3331   -1.2398 H         1 <0>         0.1264
     61 H25        -6.0167   -5.3834   -3.0325 H         1 <0>         0.1267
     62 H26        -3.8148   -4.4599   -2.5505 H         1 <0>         0.1301
     63 H27        -2.0463   -3.9271   -0.9012 H         1 <0>         0.1365
@<TRIPOS>BOND
     1    1    2 1
     2    1   37 1
     3    1   38 1
     4    1   39 1
     5    2    7 1
     6    2    3 1
     7    3    4 1
     8    3   40 1
     9    3   41 1
    10    4    5 1
    11    4   42 1
    12    4   43 1
    13    5    6 1
    14    5   25 am
    15    6    7 1
    16    6   44 1
    17    6   45 1
    18    7    8 1
    19    7   46 1
    20    8    9 1
    21    8   47 1
    22    8   48 1
    23    9   10 1
    24    9   49 1
    25   10   15 ar
    26   10   11 ar
    27   11   12 ar
    28   12   13 ar
    29   12   50 1
    30   13   14 ar
    31   13   51 1
    32   14   15 ar
    33   14   16 1
    34   16   20 1
    35   16   17 1
    36   17   18 2
    37   17   52 1
    38   18   19 1
    39   19   24 ar
    40   19   20 ar
    41   20   21 ar
    42   21   22 ar
    43   21   53 1
    44   22   23 ar
    45   22   54 1
    46   23   24 ar
    47   23   55 1
    48   24   56 1
    49   25   26 2
    50   25   27 1
    51   27   36 ar
    52   27   28 ar
    53   28   29 ar
    54   28   57 1
    55   29   30 ar
    56   29   58 1
    57   30   35 ar
    58   30   31 ar
    59   31   32 ar
    60   31   59 1
    61   32   33 ar
    62   32   60 1
    63   33   34 ar
    64   33   61 1
    65   34   35 ar
    66   34   62 1
    67   35   36 ar
    68   36   63 1
@<TRIPOS>MOLECULE
CHEMBL567241__3
   64    69     0     0     0
SMALL
USER_CHARGES

@<TRIPOS>ATOM
      1 C1          0.1090    1.5222    0.9118 C.3       1 <0>        -0.0538
      2 N1          0.0595    0.0864    0.6054 N.4       1 <0>        -0.3853
      3 C2         -1.3380   -0.3645    0.6058 C.3       1 <0>        -0.0216
      4 C3         -1.3998   -1.8335    0.1745 C.3       1 <0>         0.0719
      5 N2         -0.5097   -2.6138    1.0480 N.am      1 <0>        -0.6304
      6 C4          0.8697   -2.1380    1.2350 C.3       1 <0>         0.0944
      7 C5          0.8244   -0.6546    1.6163 C.3       1 <0>         0.0049
      8 C6          2.2493   -0.1017    1.6845 C.3       1 <0>         0.1203
      9 N3          2.8441   -0.1181    0.3458 N.pl3     1 <0>        -0.7207
     10 C7          4.0950    0.4363    0.1374 C.ar      1 <0>         0.5920
     11 N4          4.7425    0.9729    1.1614 N.ar      1 <0>        -0.5732
     12 C8          5.9411    1.5123    1.0008 C.ar      1 <0>         0.2254
     13 C9          6.5196    1.5125   -0.2551 C.ar      1 <0>        -0.2864
     14 C10         5.8136    0.9404   -1.3128 C.ar      1 <0>         0.4572
     15 N5          4.6173    0.4125   -1.0793 N.ar      1 <0>        -0.5864
     16 N6          6.3574    0.9186   -2.5956 N.pl3     1 <0>        -0.4440
     17 C11         7.5731    1.4133   -2.9680 C.2       1 <0>         0.2758
     18 N7          7.7606    1.2244   -4.2409 N.2       1 <0>        -0.4614
     19 C12         6.6810    0.5963   -4.7754 C.ar      1 <0>         0.0453
     20 C13         5.7678    0.3859   -3.7285 C.ar      1 <0>         0.0537
     21 C14         4.5603   -0.2486   -3.9796 C.ar      1 <0>        -0.0949
     22 C15         4.2614   -0.6738   -5.2571 C.ar      1 <0>        -0.1004
     23 C16         5.1609   -0.4717   -6.2936 C.ar      1 <0>        -0.1179
     24 C17         6.3606    0.1633   -6.0643 C.ar      1 <0>        -0.0589
     25 C18        -0.9458   -3.7326    1.6600 C.2       1 <0>         0.5747
     26 O1         -0.2297   -4.3088    2.4555 O.2       1 <0>        -0.4981
     27 C19        -2.2946   -4.2589    1.3640 C.ar      1 <0>        -0.1358
     28 C20        -3.0936   -4.7582    2.4083 C.ar      1 <0>        -0.0806
     29 C21        -4.3356   -5.2467    2.1618 C.ar      1 <0>        -0.0928
     30 C22        -4.8394   -5.2587    0.8480 C.ar      1 <0>        -0.0320
     31 C23        -6.1219   -5.7592    0.5683 C.ar      1 <0>        -0.1089
     32 C24        -6.5825   -5.7575   -0.7128 C.ar      1 <0>        -0.0983
     33 C25        -5.8004   -5.2661   -1.7564 C.ar      1 <0>        -0.1061
     34 C26        -4.5533   -4.7732   -1.5243 C.ar      1 <0>        -0.1066
     35 C27        -4.0435   -4.7581   -0.2135 C.ar      1 <0>        -0.0609
     36 C28        -2.7644   -4.2514    0.0613 C.ar      1 <0>        -0.0730
     37 H1          1.1475    1.8520    0.9406 H         1 <0>         0.1272
     38 H2         -0.4272    2.0768    0.1417 H         1 <0>         0.1291
     39 H3         -0.3567    1.7033    1.8806 H         1 <0>         0.1284
     40 H4         -1.7525   -0.2624    1.6088 H         1 <0>         0.1390
     41 H5         -1.9162    0.2433   -0.0901 H         1 <0>         0.1495
     42 H6         -2.4215   -2.2007    0.2707 H         1 <0>         0.1421
     43 H7         -1.0702   -1.9255   -0.8604 H         1 <0>         0.0997
     44 H8          1.3484   -2.7066    2.0323 H         1 <0>         0.1428
     45 H9          1.4284   -2.2608    0.3072 H         1 <0>         0.0947
     46 H10         0.3444   -0.5438    2.5886 H         1 <0>         0.1625
     47 H11         2.2243    0.9219    2.0584 H         1 <0>         0.1078
     48 H12         2.8469   -0.7190    2.3552 H         1 <0>         0.1175
     49 H13         2.3613   -0.5177   -0.3946 H         1 <0>         0.4064
     50 H14         6.4610    1.9476    1.8414 H         1 <0>         0.1867
     51 H15         7.4959    1.9462   -0.4134 H         1 <0>         0.1593
     52 H16         8.2767    1.8921   -2.3031 H         1 <0>         0.2261
     53 H17         3.8561   -0.4096   -3.1768 H         1 <0>         0.1325
     54 H18         3.3209   -1.1678   -5.4517 H         1 <0>         0.1329
     55 H19         4.9154   -0.8096   -7.2896 H         1 <0>         0.1369
     56 H20         7.0565    0.3163   -6.8760 H         1 <0>         0.1380
     57 H21        -2.7138   -4.7531    3.4193 H         1 <0>         0.1341
     58 H22        -4.9373   -5.6268    2.9741 H         1 <0>         0.1395
     59 H23        -6.7397   -6.1441    1.3662 H         1 <0>         0.1351
     60 H24        -7.5690   -6.1432   -0.9237 H         1 <0>         0.1317
     61 H25        -6.1894   -5.2769   -2.7638 H         1 <0>         0.1308
     62 H26        -3.9579   -4.3959   -2.3426 H         1 <0>         0.1304
     63 H27        -2.1495   -3.8631   -0.7371 H         1 <0>         0.1334
     64 H28         0.4624   -0.0760   -0.3053 H         1 <0>         0.4186
@<TRIPOS>BOND
     1    1    2 1
     2    1   37 1
     3    1   38 1
     4    1   39 1
     5    2    7 1
     6    2    3 1
     7    2   64 1
     8    3    4 1
     9    3   40 1
    10    3   41 1
    11    4    5 1
    12    4   42 1
    13    4   43 1
    14    5    6 1
    15    5   25 am
    16    6    7 1
    17    6   44 1
    18    6   45 1
    19    7    8 1
    20    7   46 1
    21    8    9 1
    22    8   47 1
    23    8   48 1
    24    9   10 1
    25    9   49 1
    26   10   15 ar
    27   10   11 ar
    28   11   12 ar
    29   12   13 ar
    30   12   50 1
    31   13   14 ar
    32   13   51 1
    33   14   15 ar
    34   14   16 1
    35   16   20 1
    36   16   17 1
    37   17   18 2
    38   17   52 1
    39   18   19 1
    40   19   24 ar
    41   19   20 ar
    42   20   21 ar
    43   21   22 ar
    44   21   53 1
    45   22   23 ar
    46   22   54 1
    47   23   24 ar
    48   23   55 1
    49   24   56 1
    50   25   26 2
    51   25   27 1
    52   27   36 ar
    53   27   28 ar
    54   28   29 ar
    55   28   57 1
    56   29   30 ar
    57   29   58 1
    58   30   35 ar
    59   30   31 ar
    60   31   32 ar
    61   31   59 1
    62   32   33 ar
    63   32   60 1
    64   33   34 ar
    65   33   61 1
    66   34   35 ar
    67   34   62 1
    68   35   36 ar
    69   36   63 1
@<TRIPOS>MOLECULE
CHEMBL214556
   70    74     0     0     0
SMALL
USER_CHARGES

@<TRIPOS>ATOM
      1 C1          0.0307    1.5035    0.0088 C.3       1 <0>        -0.1278
      2 C2          0.0391   -0.0035    0.0008 C.ar      1 <0>        -0.0361
      3 C3          0.0395   -0.6862   -1.2002 C.ar      1 <0>        -0.1215
      4 C4          0.0472   -2.0662   -1.2163 C.ar      1 <0>        -0.0737
      5 C5          0.0541   -2.7807   -0.0161 C.ar      1 <0>        -0.1421
      6 C6          0.0537   -2.0964    1.1980 C.ar      1 <0>        -0.0359
      7 C7          0.0522   -0.7052    1.2058 C.ar      1 <0>        -0.0632
      8 C8          0.0583    0.0307    2.4941 C.ar      1 <0>        -0.0559
      9 C9          0.9846    1.0651    2.7005 C.ar      1 <0>        -0.0469
     10 C10         1.0120    1.7560    3.8710 C.ar      1 <0>        -0.1171
     11 C11         0.1046    1.4370    4.8935 C.ar      1 <0>         0.2113
     12 C12        -0.8360    0.3928    4.6947 C.ar      1 <0>        -0.2007
     13 C13        -0.8526   -0.3044    3.4800 C.ar      1 <0>        -0.0450
     14 C14        -1.7347    0.0941    5.7365 C.ar      1 <0>         0.2476
     15 N1         -1.6631    0.7960    6.8481 N.ar      1 <0>        -0.5678
     16 C15        -0.7674    1.7695    7.0006 C.ar      1 <0>         0.5629
     17 N2          0.0987    2.0934    6.0602 N.ar      1 <0>        -0.5584
     18 N3         -0.7445    2.4692    8.1934 N.pl3     1 <0>        -0.7042
     19 C16        -1.6935    2.1336    9.2578 C.3       1 <0>         0.1198
     20 C17        -1.4568    3.0503   10.4598 C.3       1 <0>        -0.0189
     21 N4         -2.4084    2.7138   11.5271 N.4       1 <0>        -0.3899
     22 C18        -2.0928    1.3767   12.0919 C.3       1 <0>        -0.0102
     23 C19        -2.7567    1.4173   13.4912 C.3       1 <0>        -0.1452
     24 C20        -2.5126    2.8741   13.9475 C.3       1 <0>        -0.1453
     25 C21        -2.2741    3.6675   12.6495 C.3       1 <0>        -0.0072
     26 C22         0.0613   -4.2589   -0.0337 C.2       1 <0>         0.5633
     27 O1          0.0673   -4.8792    1.0117 O.2       1 <0>        -0.5119
     28 N5          0.0613   -4.9189   -1.2088 N.am      1 <0>        -0.6633
     29 C23         0.1847   -6.3117   -1.2285 C.ar      1 <0>         0.1451
     30 C24         0.8044   -6.9706   -0.1742 C.ar      1 <0>        -0.0949
     31 C25         0.9243   -8.3461   -0.1966 C.ar      1 <0>        -0.1036
     32 C26         0.4282   -9.0677   -1.2671 C.ar      1 <0>        -0.0835
     33 C27        -0.1891   -8.4150   -2.3181 C.ar      1 <0>        -0.1652
     34 C28        -0.3170   -7.0397   -2.2994 C.ar      1 <0>        -0.0633
     35 C29        -0.9951   -6.3296   -3.4427 C.3       1 <0>        -0.1397
     36 C30        -0.7282   -9.2053   -3.4825 C.3       1 <0>         0.5112
     37 F1         -0.4873  -10.5674   -3.2730 F         1 <0>        -0.1739
     38 F2         -2.1055   -8.9875   -3.5962 F         1 <0>        -0.1742
     39 F3         -0.0924   -8.7948   -4.6590 F         1 <0>        -0.1741
     40 H1          1.0563    1.8726    0.0029 H         1 <0>         0.0807
     41 H2         -0.4919    1.8686   -0.8754 H         1 <0>         0.0755
     42 H3         -0.4783    1.8593    0.9045 H         1 <0>         0.0732
     43 H4          0.0335   -0.1376   -2.1305 H         1 <0>         0.1373
     44 H5          0.0475   -2.5945   -2.1583 H         1 <0>         0.1288
     45 H6          0.0591   -2.6439    2.1290 H         1 <0>         0.1407
     46 H7          1.6859    1.3155    1.9182 H         1 <0>         0.1397
     47 H8          1.7312    2.5489    4.0142 H         1 <0>         0.1433
     48 H9         -1.5668   -1.0978    3.3160 H         1 <0>         0.1408
     49 H10        -2.4664   -0.6926    5.6263 H         1 <0>         0.1826
     50 H11        -0.1001    3.1822    8.3252 H         1 <0>         0.4201
     51 H12        -2.7117    2.2687    8.8928 H         1 <0>         0.0864
     52 H13        -1.5501    1.0958    9.5586 H         1 <0>         0.0866
     53 H14        -0.4387    2.9152   10.8248 H         1 <0>         0.1366
     54 H15        -1.6003    4.0881   10.1590 H         1 <0>         0.1372
     55 H16        -2.5312    0.5878   11.4808 H         1 <0>         0.1382
     56 H17        -1.0149    1.2415   12.1812 H         1 <0>         0.1350
     57 H18        -3.8242    1.2098   13.4179 H         1 <0>         0.0994
     58 H19        -2.2717    0.7145   14.1687 H         1 <0>         0.1176
     59 H20        -3.3884    3.2585   14.4704 H         1 <0>         0.1063
     60 H21        -1.6338    2.9270   14.5902 H         1 <0>         0.1045
     61 H22        -1.2717    4.0957   12.6549 H         1 <0>         0.1317
     62 H23        -3.0181    4.4585   12.5557 H         1 <0>         0.1341
     63 H24        -0.0244   -4.4277   -2.0409 H         1 <0>         0.4132
     64 H25         1.1923   -6.4077    0.6618 H         1 <0>         0.1546
     65 H26         1.4063   -8.8589    0.6226 H         1 <0>         0.1405
     66 H27         0.5235  -10.1434   -1.2823 H         1 <0>         0.1417
     67 H28        -0.2551   -6.0719   -4.2004 H         1 <0>         0.0856
     68 H29        -1.7501   -6.9831   -3.8797 H         1 <0>         0.0846
     69 H30        -1.4704   -5.4203   -3.0749 H         1 <0>         0.0732
     70 H31        -3.3519    2.7277   11.1697 H         1 <0>         0.4296
@<TRIPOS>BOND
     1    1    2 1
     2    1   40 1
     3    1   41 1
     4    1   42 1
     5    2    7 ar
     6    2    3 ar
     7    3    4 ar
     8    3   43 1
     9    4    5 ar
    10    4   44 1
    11    5    6 ar
    12    5   26 1
    13    6    7 ar
    14    6   45 1
    15    7    8 1
    16    8   13 ar
    17    8    9 ar
    18    9   10 ar
    19    9   46 1
    20   10   11 ar
    21   10   47 1
    22   11   17 ar
    23   11   12 ar
    24   12   13 ar
    25   12   14 ar
    26   13   48 1
    27   14   15 ar
    28   14   49 1
    29   15   16 ar
    30   16   17 ar
    31   16   18 1
    32   18   19 1
    33   18   50 1
    34   19   20 1
    35   19   51 1
    36   19   52 1
    37   20   21 1
    38   20   53 1
    39   20   54 1
    40   21   25 1
    41   21   22 1
    42   21   70 1
    43   22   23 1
    44   22   55 1
    45   22   56 1
    46   23   24 1
    47   23   57 1
    48   23   58 1
    49   24   25 1
    50   24   59 1
    51   24   60 1
    52   25   61 1
    53   25   62 1
    54   26   27 2
    55   26   28 am
    56   28   29 1
    57   28   63 1
    58   29   34 ar
    59   29   30 ar
    60   30   31 ar
    61   30   64 1
    62   31   32 ar
    63   31   65 1
    64   32   33 ar
    65   32   66 1
    66   33   34 ar
    67   33   36 1
    68   34   35 1
    69   35   67 1
    70   35   68 1
    71   35   69 1
    72   36   37 1
    73   36   38 1
    74   36   39 1
@<TRIPOS>MOLECULE
CHEMBL186480
   56    59     0     0     0
SMALL
USER_CHARGES

@<TRIPOS>ATOM
      1 C1          3.3346    6.6646    1.8662 C.3       1 <0>        -0.1160
      2 C2          2.6198    7.9870    1.9736 C.ar      1 <0>        -0.0847
      3 C3          2.9338    9.0152    1.1059 C.ar      1 <0>        -0.1047
      4 C4          2.2790   10.2289    1.2033 C.ar      1 <0>        -0.1039
      5 C5          1.3074   10.4185    2.1692 C.ar      1 <0>        -0.1053
      6 C6          0.9886    9.3946    3.0406 C.ar      1 <0>        -0.0237
      7 C7          1.6412    8.1712    2.9409 C.ar      1 <0>         0.1419
      8 N1          1.3165    7.1300    3.8170 N.am      1 <0>        -0.6711
      9 C8          1.3158    7.3443    5.1476 C.2       1 <0>         0.6088
     10 O1          1.4983    8.4664    5.5836 O.2       1 <0>        -0.4835
     11 C9          1.0960    6.2292    6.0677 C.2       1 <0>        -0.2925
     12 C10         1.0491    6.2203    7.4549 C.2       1 <0>         0.1648
     13 N2          0.8327    5.0605    8.0220 N.2       1 <0>        -0.5133
     14 C11         0.6688    3.9622    7.3061 C.2       1 <0>         0.2922
     15 S1          0.8054    4.5022    5.7181 S.3       1 <0>         0.1481
     16 N3          0.4349    2.6772    7.7544 N.pl3     1 <0>        -0.5907
     17 C12         0.2381    2.4392    9.1083 C.ar      1 <0>         0.4479
     18 C13        -0.1092    1.1694    9.5585 C.ar      1 <0>        -0.3348
     19 C14        -0.2952    0.9826   10.9250 C.ar      1 <0>         0.4579
     20 N4         -0.1353    2.0185   11.7465 N.ar      1 <0>        -0.5896
     21 C15         0.1941    3.2060   11.2808 C.ar      1 <0>         0.3827
     22 N5          0.3843    3.4216    9.9951 N.ar      1 <0>        -0.5361
     23 N6         -0.6424   -0.2634   11.4237 N.pl3     1 <0>        -0.7168
     24 C16        -0.8160   -1.3956   10.5103 C.3       1 <0>         0.1067
     25 C17        -1.1949   -2.6432   11.3107 C.3       1 <0>        -0.0169
     26 N7         -1.3690   -3.7785   10.3948 N.4       1 <0>        -0.3908
     27 C18        -0.0607   -4.1715    9.8117 C.3       1 <0>        -0.0110
     28 C19        -0.2964   -5.6369    9.3673 C.3       1 <0>        -0.1452
     29 C20        -1.1970   -6.1984   10.4915 C.3       1 <0>        -0.1456
     30 C21        -1.8519   -4.9631   11.1370 C.3       1 <0>        -0.0073
     31 Cl1        -0.2306    9.6332    4.2532 Cl        1 <0>        -0.0440
     32 H1          2.7924    6.0132    1.1808 H         1 <0>         0.0753
     33 H2          4.3448    6.8271    1.4904 H         1 <0>         0.0764
     34 H3          3.3835    6.1971    2.8496 H         1 <0>         0.0659
     35 H4          3.6922    8.8707    0.3506 H         1 <0>         0.1350
     36 H5          2.5269   11.0308    0.5238 H         1 <0>         0.1368
     37 H6          0.7977   11.3678    2.2426 H         1 <0>         0.1385
     38 H7          1.0918    6.2537    3.4667 H         1 <0>         0.4078
     39 H8          1.1842    7.1213    8.0348 H         1 <0>         0.1919
     40 H9          0.4081    1.9408    7.1236 H         1 <0>         0.4383
     41 H10        -0.2315    0.3501    8.8655 H         1 <0>         0.1377
     42 H11         0.3162    4.0255   11.9736 H         1 <0>         0.2072
     43 H12        -0.7703   -0.3857   12.3774 H         1 <0>         0.4164
     44 H13        -1.6073   -1.1680    9.7959 H         1 <0>         0.0857
     45 H14         0.1159   -1.5766    9.9747 H         1 <0>         0.0853
     46 H15        -0.4036   -2.8708   12.0250 H         1 <0>         0.1392
     47 H16        -2.1268   -2.4622   11.8463 H         1 <0>         0.1398
     48 H17         0.1825   -3.5439    8.9543 H         1 <0>         0.1365
     49 H18         0.7268   -4.1194   10.5636 H         1 <0>         0.1363
     50 H19        -0.8116   -5.6707    8.4073 H         1 <0>         0.0995
     51 H20         0.6463   -6.1820    9.3198 H         1 <0>         0.1183
     52 H21        -1.9593   -6.8555   10.0729 H         1 <0>         0.1069
     53 H22        -0.5957   -6.7348   11.2255 H         1 <0>         0.1052
     54 H23        -1.5571   -4.8910   12.1839 H         1 <0>         0.1327
     55 H24        -2.9367   -5.0341   11.0579 H         1 <0>         0.1349
     56 H25        -2.0195   -3.5381    9.6619 H         1 <0>         0.4291
@<TRIPOS>BOND
     1    1    2 1
     2    1   32 1
     3    1   33 1
     4    1   34 1
     5    2    7 ar
     6    2    3 ar
     7    3    4 ar
     8    3   35 1
     9    4    5 ar
    10    4   36 1
    11    5    6 ar
    12    5   37 1
    13    6    7 ar
    14    6   31 1
    15    7    8 1
    16    8    9 am
    17    8   38 1
    18    9   10 2
    19    9   11 1
    20   11   15 1
    21   11   12 2
    22   12   13 1
    23   12   39 1
    24   13   14 2
    25   14   15 1
    26   14   16 1
    27   16   17 1
    28   16   40 1
    29   17   22 ar
    30   17   18 ar
    31   18   19 ar
    32   18   41 1
    33   19   20 ar
    34   19   23 1
    35   20   21 ar
    36   21   22 ar
    37   21   42 1
    38   23   24 1
    39   23   43 1
    40   24   25 1
    41   24   44 1
    42   24   45 1
    43   25   26 1
    44   25   46 1
    45   25   47 1
    46   26   30 1
    47   26   27 1
    48   26   56 1
    49   27   28 1
    50   27   48 1
    51   27   49 1
    52   28   29 1
    53   28   50 1
    54   28   51 1
    55   29   30 1
    56   29   52 1
    57   29   53 1
    58   30   54 1
    59   30   55 1
@<TRIPOS>MOLECULE
CHEMBL249317
   43    45     0     0     0
SMALL
USER_CHARGES

@<TRIPOS>ATOM
      1 C1          0.1793    1.2485    0.0229 C.3       1 <0>        -0.1142
      2 C2         -0.1675    2.0042    1.2797 C.ar      1 <0>        -0.1341
      3 C3         -0.2044    3.3852    1.2669 C.ar      1 <0>        -0.0805
      4 C4         -0.5220    4.0812    2.4175 C.ar      1 <0>        -0.1651
      5 C5         -0.8051    3.3948    3.5904 C.ar      1 <0>         0.1209
      6 C6         -0.7695    2.0096    3.6074 C.ar      1 <0>        -0.1621
      7 C7         -0.4554    1.3117    2.4491 C.ar      1 <0>         0.1742
      8 N1         -0.4237   -0.0858    2.4608 N.pl3     1 <0>        -0.6412
      9 C8         -0.3013   -0.7663    3.6624 C.ar      1 <0>         0.4635
     10 C9         -0.4058   -2.1587    3.7021 C.ar      1 <0>        -0.3230
     11 C10        -0.2773   -2.7944    4.9214 C.ar      1 <0>         0.2171
     12 N2         -0.0601   -2.0709    6.0100 N.ar      1 <0>        -0.5879
     13 C11         0.0347   -0.7513    5.9430 C.ar      1 <0>         0.5925
     14 N3         -0.0772   -0.1040    4.7927 N.ar      1 <0>        -0.5977
     15 N4          0.2618   -0.0307    7.1040 N.pl3     1 <0>        -0.6381
     16 C12         0.4910   -0.7011    8.3094 C.ar      1 <0>         0.1501
     17 C13         1.2174   -1.8852    8.3201 C.ar      1 <0>        -0.0504
     18 C14         1.4419   -2.5448    9.5122 C.ar      1 <0>        -0.1193
     19 C15         0.9440   -2.0282   10.6947 C.ar      1 <0>        -0.0341
     20 C16         0.2206   -0.8499   10.6875 C.ar      1 <0>        -0.6544
     21 C17        -0.0023   -0.1818    9.4992 C.ar      1 <0>        -0.0487
     22 S1         -0.4114   -0.1961   12.1967 S.o2      1 <0>         2.7024
     23 O1         -1.5170    0.6271   11.8512 O.2       1 <0>        -0.9625
     24 O2         -0.5278   -1.2901   13.0960 O.2       1 <0>        -0.9611
     25 N5          0.7493    0.8073   12.8197 N.pl3     1 <0>        -1.2498
     26 O3         -1.1164    4.0808    4.7215 O.3       1 <0>        -0.4974
     27 H1         -0.7311    1.0415   -0.5396 H         1 <0>         0.0715
     28 H2          0.8548    1.8483   -0.5871 H         1 <0>         0.0737
     29 H3          0.6652    0.3089    0.2862 H         1 <0>         0.0607
     30 H4          0.0157    3.9218    0.3559 H         1 <0>         0.1302
     31 H5         -0.5498    5.1608    2.4044 H         1 <0>         0.1281
     32 H6         -0.9894    1.4739    4.5190 H         1 <0>         0.1655
     33 H7         -0.4874   -0.5793    1.6282 H         1 <0>         0.4242
     34 H8         -0.5835   -2.7251    2.7999 H         1 <0>         0.1463
     35 H9         -0.3533   -3.8698    4.9869 H         1 <0>         0.1738
     36 H10         0.2618    0.9391    7.0808 H         1 <0>         0.4270
     37 H11         1.6058   -2.2895    7.3971 H         1 <0>         0.1417
     38 H12         2.0066   -3.4654    9.5213 H         1 <0>         0.1385
     39 H13         1.1204   -2.5465   11.6256 H         1 <0>         0.1448
     40 H14        -0.5633    0.7410    9.4949 H         1 <0>         0.1454
     41 H15         1.5870    0.9325   12.3468 H         1 <0>         0.4171
     42 H16         0.5916    1.2700   13.6575 H         1 <0>         0.4216
     43 H17        -2.0616    4.2550    4.8282 H         1 <0>         0.3906
@<TRIPOS>BOND
     1    1    2 1
     2    1   27 1
     3    1   28 1
     4    1   29 1
     5    2    7 ar
     6    2    3 ar
     7    3    4 ar
     8    3   30 1
     9    4    5 ar
    10    4   31 1
    11    5    6 ar
    12    5   26 1
    13    6    7 ar
    14    6   32 1
    15    7    8 1
    16    8    9 1
    17    8   33 1
    18    9   14 ar
    19    9   10 ar
    20   10   11 ar
    21   10   34 1
    22   11   12 ar
    23   11   35 1
    24   12   13 ar
    25   13   14 ar
    26   13   15 1
    27   15   16 1
    28   15   36 1
    29   16   21 ar
    30   16   17 ar
    31   17   18 ar
    32   17   37 1
    33   18   19 ar
    34   18   38 1
    35   19   20 ar
    36   19   39 1
    37   20   21 ar
    38   20   22 1
    39   21   40 1
    40   22   23 2
    41   22   24 2
    42   22   25 1
    43   25   41 1
    44   25   42 1
    45   26   43 1
@<TRIPOS>MOLECULE
CHEMBL1336
   48    50     0     0     0
SMALL
USER_CHARGES

@<TRIPOS>ATOM
      1 C1         -1.0955   -5.0083   -6.9234 C.3       1 <0>         0.0847
      2 N1         -1.5520   -4.3038   -5.7228 N.am      1 <0>        -0.7137
      3 C2         -1.8827   -5.0004   -4.6175 C.2       1 <0>         0.5696
      4 O1         -1.8023   -6.2129   -4.6168 O.2       1 <0>        -0.5284
      5 C3         -2.3445   -4.2878   -3.4031 C.ar      1 <0>         0.1129
      6 C4         -2.6788   -5.0128   -2.2640 C.ar      1 <0>        -0.1883
      7 C5         -3.1110   -4.3279   -1.1310 C.ar      1 <0>         0.1595
      8 C6         -3.1903   -2.9389   -1.1877 C.ar      1 <0>        -0.1766
      9 C7         -2.8404   -2.2885   -2.3571 C.ar      1 <0>         0.1349
     10 N2         -2.4302   -2.9626   -3.4105 N.ar      1 <0>        -0.4815
     11 O2         -3.4471   -4.9979    0.0005 O.3       1 <0>        -0.2437
     12 C8         -3.4462   -6.3570   -0.0383 C.ar      1 <0>         0.0568
     13 C9         -2.2447   -7.0505   -0.0178 C.ar      1 <0>        -0.1074
     14 C10        -2.2431   -8.4307   -0.0577 C.ar      1 <0>        -0.1009
     15 C11        -3.4442   -9.1246   -0.1179 C.ar      1 <0>         0.1671
     16 C12        -4.6464   -8.4301   -0.1379 C.ar      1 <0>        -0.1272
     17 C13        -4.6469   -7.0500   -0.0928 C.ar      1 <0>        -0.0940
     18 N3         -3.4432  -10.5252   -0.1588 N.am      1 <0>        -0.6776
     19 C14        -2.5108  -11.2187    0.5239 C.2       1 <0>         0.7077
     20 O3         -1.6217  -10.6297    1.1080 O.2       1 <0>        -0.5493
     21 N4         -2.5639  -12.5649    0.5593 N.am      1 <0>        -0.6795
     22 C15        -1.6655  -13.2800    1.3600 C.ar      1 <0>         0.1700
     23 C16        -1.2529  -12.7583    2.5792 C.ar      1 <0>        -0.0742
     24 C17        -0.3670  -13.4659    3.3674 C.ar      1 <0>        -0.0871
     25 C18         0.1097  -14.6941    2.9434 C.ar      1 <0>        -0.0077
     26 C19        -0.2993  -15.2159    1.7290 C.ar      1 <0>        -0.1564
     27 C20        -1.1898  -14.5147    0.9394 C.ar      1 <0>        -0.0879
     28 C21         0.2222  -16.5533    1.2702 C.3       1 <0>         0.5112
     29 F1         -0.3299  -16.8663    0.0234 F         1 <0>        -0.1743
     30 F2          1.6160  -16.4983    1.1626 F         1 <0>        -0.1671
     31 F3         -0.1354  -17.5367    2.1987 F         1 <0>        -0.1677
     32 Cl1         1.2234  -15.5812    3.9366 Cl        1 <0>        -0.0394
     33 H1         -0.8760   -4.2843   -7.7081 H         1 <0>         0.0803
     34 H2         -0.1948   -5.5764   -6.6909 H         1 <0>         0.0631
     35 H3         -1.8761   -5.6883   -7.2645 H         1 <0>         0.0629
     36 H4         -1.6162   -3.3359   -5.7233 H         1 <0>         0.4141
     37 H5         -2.6047   -6.0902   -2.2584 H         1 <0>         0.1546
     38 H6         -3.5217   -2.3755   -0.3280 H         1 <0>         0.1523
     39 H7         -2.9005   -1.2112   -2.4052 H         1 <0>         0.1747
     40 H8         -1.3104   -6.5106    0.0290 H         1 <0>         0.1364
     41 H9         -1.3078   -8.9704   -0.0424 H         1 <0>         0.1514
     42 H10        -5.5809   -8.9693   -0.1851 H         1 <0>         0.1386
     43 H11        -5.5820   -6.5098   -0.1039 H         1 <0>         0.1400
     44 H12        -4.1137  -10.9957   -0.6785 H         1 <0>         0.4131
     45 H13        -3.2246  -13.0383    0.0299 H         1 <0>         0.4146
     46 H14        -1.6244  -11.7997    2.9103 H         1 <0>         0.1546
     47 H15        -0.0456  -13.0604    4.3154 H         1 <0>         0.1524
     48 H16        -1.5123  -14.9245   -0.0064 H         1 <0>         0.1525
@<TRIPOS>BOND
     1    1    2 1
     2    1   33 1
     3    1   34 1
     4    1   35 1
     5    2    3 am
     6    2   36 1
     7    3    4 2
     8    3    5 1
     9    5   10 ar
    10    5    6 ar
    11    6    7 ar
    12    6   37 1
    13    7    8 ar
    14    7   11 1
    15    8    9 ar
    16    8   38 1
    17    9   10 ar
    18    9   39 1
    19   11   12 1
    20   12   17 ar
    21   12   13 ar
    22   13   14 ar
    23   13   40 1
    24   14   15 ar
    25   14   41 1
    26   15   16 ar
    27   15   18 1
    28   16   17 ar
    29   16   42 1
    30   17   43 1
    31   18   19 am
    32   18   44 1
    33   19   20 2
    34   19   21 am
    35   21   22 1
    36   21   45 1
    37   22   27 ar
    38   22   23 ar
    39   23   24 ar
    40   23   46 1
    41   24   25 ar
    42   24   47 1
    43   25   26 ar
    44   25   32 1
    45   26   27 ar
    46   26   28 1
    47   27   48 1
    48   28   29 1
    49   28   30 1
    50   28   31 1
@<TRIPOS>MOLECULE
CHEMBL26214
   65    69     0     0     0
SMALL
USER_CHARGES

@<TRIPOS>ATOM
      1 C1          0.5613    0.1657    3.8191 C.3       1 <0>        -0.1165
      2 C2          0.4625   -1.0617    2.9503 C.2       1 <0>        -0.0721
      3 C3         -0.7907   -1.6903    2.7547 C.ar      1 <0>        -0.0089
      4 C4         -1.9572   -1.1961    3.3546 C.ar      1 <0>        -0.1213
      5 C5         -3.1514   -1.8170    3.1518 C.ar      1 <0>        -0.0315
      6 C6         -3.2383   -2.9595    2.3420 C.ar      1 <0>         0.0844
      7 C7         -2.0863   -3.4746    1.7300 C.ar      1 <0>         0.0918
      8 C8         -0.8551   -2.8411    1.9337 C.ar      1 <0>        -0.1149
      9 C9          0.3785   -3.3353    1.3193 C.2       1 <0>         0.5471
     10 N1          1.5347   -2.6812    1.5535 N.am      1 <0>        -0.6243
     11 C10         1.5751   -1.5601    2.3514 C.2       1 <0>         0.0963
     12 C11         2.8637   -0.8845    2.5667 C.2       1 <0>        -0.0262
     13 C12         3.9545   -1.3181    1.9413 C.2       1 <0>        -0.2437
     14 C13         5.2749   -0.6260    2.1619 C.3       1 <0>         0.0380
     15 N2          6.2748   -1.6077    2.6028 N.4       1 <0>        -0.3839
     16 C14         5.8912   -2.1409    3.9168 C.3       1 <0>        -0.0535
     17 C15         7.5883   -0.9577    2.7026 C.3       1 <0>         0.0445
     18 C16         8.6353   -1.9893    3.0353 C.ar      1 <0>        -0.1628
     19 C17         8.9284   -2.2757    4.3555 C.ar      1 <0>        -0.0962
     20 C18         9.8888   -3.2220    4.6607 C.ar      1 <0>        -0.1141
     21 C19        10.5557   -3.8821    3.6457 C.ar      1 <0>        -0.0836
     22 C20        10.2620   -3.5964    2.3255 C.ar      1 <0>        -0.1133
     23 C21         9.2986   -2.6532    2.0203 C.ar      1 <0>        -0.0940
     24 O1          0.3611   -4.3235    0.6069 O.2       1 <0>        -0.5309
     25 N3         -2.4903   -4.5809    1.0122 N.pl3     1 <0>        -0.4913
     26 C22        -3.8374   -4.7144    1.1948 C.2       1 <0>         0.5442
     27 N4         -4.2746   -3.7595    1.9773 N.2       1 <0>        -0.5089
     28 N5         -4.6201   -5.7063    0.6383 N.pl3     1 <0>        -0.6481
     29 C23        -5.9695   -5.8140    0.9924 C.ar      1 <0>         0.1718
     30 C24        -6.8359   -4.7514    0.7660 C.ar      1 <0>        -0.0114
     31 C25        -8.1683   -4.8613    1.1171 C.ar      1 <0>        -0.0952
     32 C26        -8.6392   -6.0268    1.6934 C.ar      1 <0>        -0.0919
     33 C27        -7.7800   -7.0861    1.9205 C.ar      1 <0>        -0.0954
     34 C28        -6.4477   -6.9859    1.5660 C.ar      1 <0>        -0.0352
     35 Cl1        -5.3717   -8.3195    1.8440 Cl        1 <0>        -0.0500
     36 Cl2        -6.2455   -3.2873    0.0437 Cl        1 <0>        -0.0348
     37 C29        -1.6334   -5.4512    0.2031 C.3       1 <0>         0.0843
     38 H1          1.3765    0.7968    3.4650 H         1 <0>         0.0719
     39 H2         -0.3753    0.7211    3.7712 H         1 <0>         0.0849
     40 H3          0.7543   -0.1330    4.8494 H         1 <0>         0.0828
     41 H4         -1.9081   -0.3180    3.9815 H         1 <0>         0.1445
     42 H5         -4.0426   -1.4258    3.6200 H         1 <0>         0.1412
     43 H6          2.9241   -0.0364    3.2326 H         1 <0>         0.1541
     44 H7          3.8941   -2.1663    1.2755 H         1 <0>         0.1299
     45 H8          5.6039   -0.1656    1.2303 H         1 <0>         0.1396
     46 H9          5.1589    0.1428    2.9259 H         1 <0>         0.1343
     47 H10         4.9165   -2.6232    3.8428 H         1 <0>         0.1229
     48 H11         6.6331   -2.8693    4.2440 H         1 <0>         0.1238
     49 H12         5.8394   -1.3258    4.6386 H         1 <0>         0.1227
     50 H13         7.8331   -0.4852    1.7513 H         1 <0>         0.1370
     51 H14         7.5609   -0.2016    3.4873 H         1 <0>         0.1365
     52 H15         8.4073   -1.7599    5.1485 H         1 <0>         0.1313
     53 H16        10.1183   -3.4453    5.6921 H         1 <0>         0.1363
     54 H17        11.3065   -4.6209    3.8841 H         1 <0>         0.1359
     55 H18        10.7833   -4.1119    1.5324 H         1 <0>         0.1361
     56 H19         9.0664   -2.4326    0.9889 H         1 <0>         0.1311
     57 H20        -4.2345   -6.3286    0.0020 H         1 <0>         0.4229
     58 H21        -8.8422   -4.0359    0.9415 H         1 <0>         0.1461
     59 H22        -9.6807   -6.1097    1.9670 H         1 <0>         0.1477
     60 H23        -8.1512   -7.9946    2.3714 H         1 <0>         0.1465
     61 H24        -1.0172   -6.0660    0.8592 H         1 <0>         0.0787
     62 H25        -2.2543   -6.0945   -0.4203 H         1 <0>         0.0677
     63 H26        -0.9911   -4.8405   -0.4314 H         1 <0>         0.1132
     64 H27         2.3542   -3.0054    1.1482 H         1 <0>         0.4072
     65 H28         6.3227   -2.3622    1.9346 H         1 <0>         0.4243
@<TRIPOS>BOND
     1    1    2 1
     2    1   38 1
     3    1   39 1
     4    1   40 1
     5    2   11 2
     6    2    3 1
     7    3    8 ar
     8    3    4 ar
     9    4    5 ar
    10    4   41 1
    11    5    6 ar
    12    5   42 1
    13    6   27 1
    14    6    7 ar
    15    7    8 ar
    16    7   25 1
    17    8    9 1
    18    9   10 am
    19    9   24 2
    20   10   11 1
    21   10   64 1
    22   11   12 1
    23   12   13 2
    24   12   43 1
    25   13   14 1
    26   13   44 1
    27   14   15 1
    28   14   45 1
    29   14   46 1
    30   15   16 1
    31   15   17 1
    32   15   65 1
    33   16   47 1
    34   16   48 1
    35   16   49 1
    36   17   18 1
    37   17   50 1
    38   17   51 1
    39   18   23 ar
    40   18   19 ar
    41   19   20 ar
    42   19   52 1
    43   20   21 ar
    44   20   53 1
    45   21   22 ar
    46   21   54 1
    47   22   23 ar
    48   22   55 1
    49   23   56 1
    50   25   26 1
    51   25   37 1
    52   26   27 2
    53   26   28 1
    54   28   29 1
    55   28   57 1
    56   29   34 ar
    57   29   30 ar
    58   30   31 ar
    59   30   36 1
    60   31   32 ar
    61   31   58 1
    62   32   33 ar
    63   32   59 1
    64   33   34 ar
    65   33   60 1
    66   34   35 1
    67   37   61 1
    68   37   62 1
    69   37   63 1
@<TRIPOS>MOLECULE
CHEMBL26214__1
   64    68     0     0     0
SMALL
USER_CHARGES

@<TRIPOS>ATOM
      1 C1          0.5613    0.1657    3.8191 C.3       1 <0>        -0.1033
      2 C2          0.4625   -1.0617    2.9503 C.2       1 <0>        -0.1356
      3 C3         -0.7907   -1.6904    2.7547 C.ar      1 <0>         0.0232
      4 C4         -1.9572   -1.1961    3.3547 C.ar      1 <0>        -0.1317
      5 C5         -3.1514   -1.8171    3.1518 C.ar      1 <0>        -0.0301
      6 C6         -3.2383   -2.9595    2.3420 C.ar      1 <0>         0.0640
      7 C7         -2.0863   -3.4746    1.7300 C.ar      1 <0>         0.1012
      8 C8         -0.8551   -2.8411    1.9337 C.ar      1 <0>        -0.1363
      9 C9          0.3785   -3.3353    1.3192 C.2       1 <0>         0.5461
     10 N1          1.5347   -2.6812    1.5534 N.am      1 <0>        -0.6210
     11 C10         1.5751   -1.5601    2.3514 C.2       1 <0>         0.1596
     12 C11         2.8637   -0.8845    2.5667 C.2       1 <0>        -0.1314
     13 C12         3.9545   -1.3182    1.9413 C.2       1 <0>        -0.1155
     14 C13         5.2749   -0.6260    2.1619 C.3       1 <0>         0.0811
     15 N2          6.2748   -1.6077    2.6028 N.3       1 <0>        -0.5337
     16 C14         5.9364   -2.1452    3.9274 C.3       1 <0>         0.0178
     17 C15         7.6227   -1.0237    2.6003 C.3       1 <0>         0.0931
     18 C16         8.6422   -2.1122    2.8167 C.ar      1 <0>        -0.0811
     19 C17         9.0346   -2.4466    4.0993 C.ar      1 <0>        -0.1141
     20 C18         9.9698   -3.4450    4.2977 C.ar      1 <0>        -0.1211
     21 C19        10.5121   -4.1095    3.2136 C.ar      1 <0>        -0.1186
     22 C20        10.1190   -3.7757    1.9311 C.ar      1 <0>        -0.1208
     23 C21         9.1807   -2.7802    1.7328 C.ar      1 <0>        -0.0982
     24 O1          0.3611   -4.3235    0.6069 O.2       1 <0>        -0.5409
     25 N3         -2.4903   -4.5809    1.0122 N.pl3     1 <0>        -0.4894
     26 C22        -3.8374   -4.7144    1.1948 C.2       1 <0>         0.5301
     27 N4         -4.2746   -3.7595    1.9773 N.2       1 <0>        -0.5084
     28 N5         -4.6201   -5.7063    0.6383 N.pl3     1 <0>        -0.6517
     29 C23        -5.9695   -5.8140    0.9924 C.ar      1 <0>         0.1794
     30 C24        -6.8359   -4.7513    0.7660 C.ar      1 <0>        -0.0126
     31 C25        -8.1683   -4.8613    1.1171 C.ar      1 <0>        -0.0963
     32 C26        -8.6392   -6.0268    1.6934 C.ar      1 <0>        -0.0964
     33 C27        -7.7800   -7.0861    1.9205 C.ar      1 <0>        -0.0967
     34 C28        -6.4477   -6.9859    1.5660 C.ar      1 <0>        -0.0372
     35 Cl1        -5.3717   -8.3195    1.8440 Cl        1 <0>        -0.0508
     36 Cl2        -6.2455   -3.2873    0.0437 Cl        1 <0>        -0.0330
     37 C29        -1.6334   -5.4511    0.2031 C.3       1 <0>         0.0852
     38 H1          1.3765    0.7968    3.4650 H         1 <0>         0.0706
     39 H2         -0.3753    0.7211    3.7712 H         1 <0>         0.0744
     40 H3          0.7543   -0.1331    4.8494 H         1 <0>         0.0731
     41 H4         -1.9081   -0.3181    3.9816 H         1 <0>         0.1415
     42 H5         -4.0426   -1.4259    3.6200 H         1 <0>         0.1356
     43 H6          2.9241   -0.0364    3.2325 H         1 <0>         0.1441
     44 H7          3.8941   -2.1663    1.2754 H         1 <0>         0.1146
     45 H8          5.6039   -0.1656    1.2303 H         1 <0>         0.0917
     46 H9          5.1589    0.1428    2.9259 H         1 <0>         0.0471
     47 H10         4.9628   -2.6335    3.8835 H         1 <0>         0.0692
     48 H11         6.6928   -2.8694    4.2297 H         1 <0>         0.0747
     49 H12         5.9024   -1.3314    4.6519 H         1 <0>         0.0282
     50 H13         7.8068   -0.5388    1.6416 H         1 <0>         0.0853
     51 H14         7.7013   -0.2879    3.4007 H         1 <0>         0.0459
     52 H15         8.6109   -1.9275    4.9463 H         1 <0>         0.1182
     53 H16        10.2769   -3.7058    5.2998 H         1 <0>         0.1216
     54 H17        11.2433   -4.8891    3.3687 H         1 <0>         0.1213
     55 H18        10.5430   -4.2946    1.0841 H         1 <0>         0.1222
     56 H19         8.8707   -2.5220    0.7310 H         1 <0>         0.1222
     57 H20        -4.2345   -6.3286    0.0019 H         1 <0>         0.4215
     58 H21        -8.8422   -4.0359    0.9415 H         1 <0>         0.1442
     59 H22        -9.6807   -6.1097    1.9670 H         1 <0>         0.1453
     60 H23        -8.1512   -7.9946    2.3714 H         1 <0>         0.1444
     61 H24        -1.0172   -6.0660    0.8592 H         1 <0>         0.0781
     62 H25        -2.2543   -6.0945   -0.4204 H         1 <0>         0.0633
     63 H26        -0.9911   -4.8404   -0.4314 H         1 <0>         0.1144
     64 H27         2.3542   -3.0054    1.1482 H         1 <0>         0.4125
@<TRIPOS>BOND
     1    1    2 1
     2    1   38 1
     3    1   39 1
     4    1   40 1
     5    2   11 2
     6    2    3 1
     7    3    8 ar
     8    3    4 ar
     9    4    5 ar
    10    4   41 1
    11    5    6 ar
    12    5   42 1
    13    6   27 1
    14    6    7 ar
    15    7    8 ar
    16    7   25 1
    17    8    9 1
    18    9   10 am
    19    9   24 2
    20   10   11 1
    21   10   64 1
    22   11   12 1
    23   12   13 2
    24   12   43 1
    25   13   14 1
    26   13   44 1
    27   14   15 1
    28   14   45 1
    29   14   46 1
    30   15   16 1
    31   15   17 1
    32   16   47 1
    33   16   48 1
    34   16   49 1
    35   17   18 1
    36   17   50 1
    37   17   51 1
    38   18   23 ar
    39   18   19 ar
    40   19   20 ar
    41   19   52 1
    42   20   21 ar
    43   20   53 1
    44   21   22 ar
    45   21   54 1
    46   22   23 ar
    47   22   55 1
    48   23   56 1
    49   25   26 1
    50   25   37 1
    51   26   27 2
    52   26   28 1
    53   28   29 1
    54   28   57 1
    55   29   34 ar
    56   29   30 ar
    57   30   31 ar
    58   30   36 1
    59   31   32 ar
    60   31   58 1
    61   32   33 ar
    62   32   59 1
    63   33   34 ar
    64   33   60 1
    65   34   35 1
    66   37   61 1
    67   37   62 1
    68   37   63 1
@<TRIPOS>MOLECULE
CHEMBL569882
   64    68     0     0     0
SMALL
USER_CHARGES

@<TRIPOS>ATOM
      1 C1          0.8179    1.5690   -0.8223 C.3       1 <0>        -0.1420
      2 C2          0.9277    0.0716   -0.9515 C.ar      1 <0>         0.0059
      3 C3         -0.2201   -0.7096   -0.8948 C.ar      1 <0>        -0.0925
      4 C4         -0.1570   -2.0674   -1.0086 C.ar      1 <0>        -0.0647
      5 C5          1.0816   -2.6978   -1.1863 C.ar      1 <0>        -0.1273
      6 C6          2.2617   -1.9164   -1.2463 C.ar      1 <0>         0.0413
      7 C7          2.1716   -0.5118   -1.1313 C.ar      1 <0>        -0.0297
      8 C8          3.3908    0.3261   -1.1972 C.ar      1 <0>        -0.1060
      9 C9          4.1307    0.3877   -2.3901 C.ar      1 <0>        -0.0585
     10 C10         5.2529    1.1491   -2.4777 C.ar      1 <0>        -0.1108
     11 C11         5.6868    1.8880   -1.3655 C.ar      1 <0>         0.2270
     12 C12         4.9469    1.8331   -0.1553 C.ar      1 <0>        -0.2227
     13 C13         3.7898    1.0475   -0.0842 C.ar      1 <0>        -0.0192
     14 C14         5.4048    2.5847    0.9439 C.ar      1 <0>         0.2490
     15 N1          6.4978    3.3044    0.8008 N.ar      1 <0>        -0.5527
     16 C15         7.1675    3.3326   -0.3497 C.ar      1 <0>         0.5785
     17 N2          6.7865    2.6499   -1.4120 N.ar      1 <0>        -0.5758
     18 N3          8.3089    4.1093   -0.4344 N.pl3     1 <0>        -0.6924
     19 C16         8.7586    4.8795    0.7278 C.3       1 <0>         0.0989
     20 C17         3.4902   -2.5749   -1.4257 C.ar      1 <0>        -0.1134
     21 C18         3.4993   -3.9326   -1.5344 C.ar      1 <0>         0.0816
     22 N4          2.3848   -4.6485   -1.4764 N.ar      1 <0>        -0.5055
     23 C19         1.1955   -4.1008   -1.3094 C.ar      1 <0>         0.5051
     24 N5          0.0641   -4.8979   -1.2552 N.pl3     1 <0>        -0.6117
     25 C20         0.1891   -6.2851   -1.2513 C.2       1 <0>         0.2044
     26 C21         0.2137   -7.0886   -0.1521 C.2       1 <0>        -0.1999
     27 C22         0.3513   -8.4086   -0.5893 C.2       1 <0>         0.0989
     28 N6          0.4078   -8.4080   -1.8964 N.2       1 <0>        -0.2317
     29 N7          0.3027   -7.0847   -2.3433 N.pl3     1 <0>        -0.3716
     30 C23         0.3159   -6.6417   -3.7397 C.3       1 <0>         0.0860
     31 C24         0.4230   -9.6268    0.2951 C.3       1 <0>         0.0077
     32 C25        -0.9717   -9.9465    0.8367 C.3       1 <0>        -0.1413
     33 C26         0.9401  -10.8164   -0.5163 C.3       1 <0>        -0.1422
     34 C27         1.3734   -9.3541    1.4626 C.3       1 <0>        -0.1414
     35 H1          0.6815    2.0099   -1.8098 H         1 <0>         0.0937
     36 H2         -0.0362    1.8177   -0.1923 H         1 <0>         0.0855
     37 H3          1.7288    1.9626   -0.3713 H         1 <0>         0.0859
     38 H4         -1.1795   -0.2330   -0.7577 H         1 <0>         0.1536
     39 H5         -1.0612   -2.6563   -0.9614 H         1 <0>         0.1431
     40 H6          3.8030   -0.1784   -3.2495 H         1 <0>         0.1322
     41 H7          5.8107    1.1854   -3.4018 H         1 <0>         0.1434
     42 H8          3.2167    1.0017    0.8300 H         1 <0>         0.1383
     43 H9          4.8713    2.5713    1.8828 H         1 <0>         0.1809
     44 H10         8.8115    4.1440   -1.2632 H         1 <0>         0.4196
     45 H11         9.6672    5.4249    0.4728 H         1 <0>         0.0821
     46 H12         7.9807    5.5854    1.0190 H         1 <0>         0.0640
     47 H13         8.9624    4.2013    1.5564 H         1 <0>         0.0638
     48 H14         4.4115   -2.0137   -1.4768 H         1 <0>         0.1792
     49 H15         4.4421   -4.4410   -1.6723 H         1 <0>         0.2012
     50 H16        -0.8153   -4.4900   -1.2199 H         1 <0>         0.4481
     51 H17         0.1404   -6.7634    0.8752 H         1 <0>         0.1650
     52 H18         1.3419   -6.4396   -4.0471 H         1 <0>         0.0796
     53 H19        -0.1059   -7.4225   -4.3726 H         1 <0>         0.1091
     54 H20        -0.2785   -5.7334   -3.8383 H         1 <0>         0.0886
     55 H21        -1.6488  -10.1408    0.0049 H         1 <0>         0.0599
     56 H22        -0.9199  -10.8276    1.4764 H         1 <0>         0.0730
     57 H23        -1.3401   -9.0990    1.4148 H         1 <0>         0.0602
     58 H24         1.9337  -10.5886   -0.9022 H         1 <0>         0.0580
     59 H25         0.9919  -11.6974    0.1233 H         1 <0>         0.0677
     60 H26         0.2630  -11.0106   -1.3481 H         1 <0>         0.0639
     61 H27         1.0050   -8.5066    2.0407 H         1 <0>         0.0600
     62 H28         1.4252  -10.2351    2.1023 H         1 <0>         0.0734
     63 H29         2.3670   -9.1263    1.0768 H         1 <0>         0.0575
     64 H30         2.4459   -5.6129   -1.5599 H         1 <0>         0.4381
@<TRIPOS>BOND
     1    1    2 1
     2    1   35 1
     3    1   36 1
     4    1   37 1
     5    2    7 ar
     6    2    3 ar
     7    3    4 ar
     8    3   38 1
     9    4    5 ar
    10    4   39 1
    11    5   23 ar
    12    5    6 ar
    13    6    7 ar
    14    6   20 ar
    15    7    8 1
    16    8   13 ar
    17    8    9 ar
    18    9   10 ar
    19    9   40 1
    20   10   11 ar
    21   10   41 1
    22   11   17 ar
    23   11   12 ar
    24   12   13 ar
    25   12   14 ar
    26   13   42 1
    27   14   15 ar
    28   14   43 1
    29   15   16 ar
    30   16   17 ar
    31   16   18 1
    32   18   19 1
    33   18   44 1
    34   19   45 1
    35   19   46 1
    36   19   47 1
    37   20   21 ar
    38   20   48 1
    39   21   22 ar
    40   21   49 1
    41   22   23 ar
    42   22   64 1
    43   23   24 1
    44   24   25 1
    45   24   50 1
    46   25   29 1
    47   25   26 2
    48   26   27 1
    49   26   51 1
    50   27   28 2
    51   27   31 1
    52   28   29 1
    53   29   30 1
    54   30   52 1
    55   30   53 1
    56   30   54 1
    57   31   32 1
    58   31   33 1
    59   31   34 1
    60   32   55 1
    61   32   56 1
    62   32   57 1
    63   33   58 1
    64   33   59 1
    65   33   60 1
    66   34   61 1
    67   34   62 1
    68   34   63 1
@<TRIPOS>MOLECULE
CHEMBL569882__1
   63    67     0     0     0
SMALL
USER_CHARGES

@<TRIPOS>ATOM
      1 C1         -0.0184    1.5028    0.0103 C.3       1 <0>        -0.1274
      2 C2          0.0021   -0.0041    0.0020 C.ar      1 <0>        -0.0377
      3 C3          0.0057   -0.6852   -1.2092 C.ar      1 <0>        -0.1211
      4 C4          0.0244   -2.0484   -1.2532 C.ar      1 <0>        -0.0794
      5 C5          0.0405   -2.7866   -0.0624 C.ar      1 <0>        -0.1345
      6 C6          0.0371   -2.1082    1.1811 C.ar      1 <0>         0.0309
      7 C7          0.0229   -0.6963    1.2022 C.ar      1 <0>        -0.0507
      8 C8          0.0252    0.0349    2.4900 C.ar      1 <0>        -0.0667
      9 C9          1.1426   -0.0496    3.3375 C.ar      1 <0>        -0.0505
     10 C10         1.1709    0.6116    4.5245 C.ar      1 <0>        -0.1182
     11 C11         0.0724    1.3926    4.9178 C.ar      1 <0>         0.2169
     12 C12        -1.0618    1.4850    4.0691 C.ar      1 <0>        -0.2136
     13 C13        -1.0719    0.8013    2.8471 C.ar      1 <0>        -0.0383
     14 C14        -2.1489    2.2757    4.4885 C.ar      1 <0>         0.2430
     15 N1         -2.0654    2.8938    5.6479 N.ar      1 <0>        -0.5581
     16 C15        -0.9854    2.7848    6.4191 C.ar      1 <0>         0.5688
     17 N2          0.0621    2.0591    6.0786 N.ar      1 <0>        -0.5736
     18 N3         -0.9609    3.4598    7.6261 N.pl3     1 <0>        -0.7005
     19 C16        -2.1086    4.2743    8.0332 C.3       1 <0>         0.1038
     20 C17         0.0540   -2.8737    2.3595 C.ar      1 <0>        -0.2047
     21 C18         0.0730   -4.2321    2.2614 C.ar      1 <0>         0.1308
     22 N4          0.0763   -4.8508    1.0888 N.ar      1 <0>        -0.5283
     23 C19         0.0607   -4.1995   -0.0591 C.ar      1 <0>         0.4331
     24 N5          0.0641   -4.8979   -1.2552 N.pl3     1 <0>        -0.6274
     25 C20         0.0840   -6.2906   -1.2484 C.2       1 <0>         0.3099
     26 C21         0.0955   -7.0907   -0.1465 C.2       1 <0>        -0.2685
     27 C22         0.1139   -8.4185   -0.5814 C.2       1 <0>         0.0983
     28 N6          0.1137   -8.4257   -1.8897 N.2       1 <0>        -0.2873
     29 N7          0.0896   -7.0994   -2.3395 N.pl3     1 <0>        -0.4000
     30 C23         0.0758   -6.6624   -3.7378 C.3       1 <0>         0.1015
     31 C24         0.1316   -9.6362    0.3063 C.3       1 <0>         0.0138
     32 C25        -1.2585   -9.8480    0.9093 C.3       1 <0>        -0.1361
     33 C26         0.5218  -10.8637   -0.5194 C.3       1 <0>        -0.1367
     34 C27         1.1496   -9.4331    1.4304 C.3       1 <0>        -0.1366
     35 H1          1.0042    1.8801    0.0026 H         1 <0>         0.0773
     36 H2         -0.5455    1.8639   -0.8728 H         1 <0>         0.0719
     37 H3         -0.5286    1.8543    0.9071 H         1 <0>         0.0752
     38 H4         -0.0070   -0.1250   -2.1325 H         1 <0>         0.1309
     39 H5          0.0265   -2.5583   -2.2052 H         1 <0>         0.1223
     40 H6          1.9910   -0.6488    3.0417 H         1 <0>         0.1327
     41 H7          2.0373    0.5360    5.1648 H         1 <0>         0.1395
     42 H8         -1.9276    0.8679    2.1916 H         1 <0>         0.1355
     43 H9         -3.0309    2.3732    3.8729 H         1 <0>         0.1779
     44 H10        -0.1839    3.3940    8.2029 H         1 <0>         0.4167
     45 H11        -1.9074    4.7256    9.0047 H         1 <0>         0.0774
     46 H12        -2.2769    5.0592    7.2958 H         1 <0>         0.0602
     47 H13        -2.9953    3.6441    8.1019 H         1 <0>         0.0604
     48 H14         0.0524   -2.3929    3.3266 H         1 <0>         0.1374
     49 H15         0.0860   -4.8227    3.1656 H         1 <0>         0.1581
     50 H16         0.0526   -4.4171   -2.0976 H         1 <0>         0.4159
     51 H17         0.0914   -6.7581    0.8810 H         1 <0>         0.1849
     52 H18         1.0999   -6.5394   -4.0901 H         1 <0>         0.0725
     53 H19        -0.4308   -7.4107   -4.3473 H         1 <0>         0.0935
     54 H20        -0.4521   -5.7120   -3.8162 H         1 <0>         0.0756
     55 H21        -1.9837   -9.9927    0.1085 H         1 <0>         0.0545
     56 H22        -1.2457  -10.7287    1.5514 H         1 <0>         0.0625
     57 H23        -1.5365   -8.9735    1.4976 H         1 <0>         0.0604
     58 H24         1.5122  -10.7128   -0.9490 H         1 <0>         0.0553
     59 H25         0.5346  -11.7444    0.1227 H         1 <0>         0.0576
     60 H26        -0.2034  -11.0084   -1.3202 H         1 <0>         0.0596
     61 H27         0.8716   -8.5586    2.0187 H         1 <0>         0.0628
     62 H28         1.1624  -10.3138    2.0725 H         1 <0>         0.0614
     63 H29         2.1399   -9.2822    1.0008 H         1 <0>         0.0552
@<TRIPOS>BOND
     1    1    2 1
     2    1   35 1
     3    1   36 1
     4    1   37 1
     5    2    7 ar
     6    2    3 ar
     7    3    4 ar
     8    3   38 1
     9    4    5 ar
    10    4   39 1
    11    5   23 ar
    12    5    6 ar
    13    6    7 ar
    14    6   20 ar
    15    7    8 1
    16    8   13 ar
    17    8    9 ar
    18    9   10 ar
    19    9   40 1
    20   10   11 ar
    21   10   41 1
    22   11   17 ar
    23   11   12 ar
    24   12   13 ar
    25   12   14 ar
    26   13   42 1
    27   14   15 ar
    28   14   43 1
    29   15   16 ar
    30   16   17 ar
    31   16   18 1
    32   18   19 1
    33   18   44 1
    34   19   45 1
    35   19   46 1
    36   19   47 1
    37   20   21 ar
    38   20   48 1
    39   21   22 ar
    40   21   49 1
    41   22   23 ar
    42   23   24 1
    43   24   25 1
    44   24   50 1
    45   25   29 1
    46   25   26 2
    47   26   27 1
    48   26   51 1
    49   27   28 2
    50   27   31 1
    51   28   29 1
    52   29   30 1
    53   30   52 1
    54   30   53 1
    55   30   54 1
    56   31   32 1
    57   31   33 1
    58   31   34 1
    59   32   55 1
    60   32   56 1
    61   32   57 1
    62   33   58 1
    63   33   59 1
    64   33   60 1
    65   34   61 1
    66   34   62 1
    67   34   63 1
@<TRIPOS>MOLECULE
CHEMBL394490
   83    88     0     0     0
SMALL
USER_CHARGES

@<TRIPOS>ATOM
      1 C1         -1.4021    0.4180    2.7439 C.3       1 <0>         0.0206
      2 O1         -1.0096   -0.4084    1.6461 O.3       1 <0>        -0.3067
      3 C2         -1.9652   -0.7074    0.7258 C.ar      1 <0>         0.1152
      4 C3         -3.2470   -0.2118    0.8746 C.ar      1 <0>        -0.1433
      5 C4         -4.2264   -0.5212   -0.0730 C.ar      1 <0>        -0.0074
      6 C5         -3.9049   -1.3300   -1.1663 C.ar      1 <0>        -0.0760
      7 C6         -2.6240   -1.8206   -1.3077 C.ar      1 <0>        -0.1637
      8 C7         -1.6506   -1.5085   -0.3697 C.ar      1 <0>         0.1034
      9 O2         -0.3879   -1.9904   -0.5169 O.3       1 <0>        -0.3129
     10 C8         -0.1340   -2.8054   -1.6630 C.3       1 <0>         0.0228
     11 C9          1.3297   -3.2508   -1.6579 C.3       1 <0>        -0.0008
     12 N1          1.5763   -4.1091   -0.4915 N.4       1 <0>        -0.3846
     13 C10         3.0105   -4.4079   -0.4003 C.3       1 <0>        -0.0071
     14 C11         3.2841   -5.2344    0.8582 C.3       1 <0>        -0.1470
     15 C12         2.4920   -6.5430    0.7851 C.3       1 <0>        -0.1391
     16 C13         1.0049   -6.2192    0.6154 C.3       1 <0>        -0.1450
     17 C14         0.8157   -5.3563   -0.6340 C.3       1 <0>        -0.0128
     18 C15        -5.5959    0.0043    0.0805 C.2       1 <0>         0.0773
     19 C16        -6.7431   -0.7301   -0.0520 C.2       1 <0>        -0.0810
     20 C17        -7.8460    0.2096    0.1875 C.ar      1 <0>        -0.2788
     21 C18        -9.2442    0.1195    0.2050 C.ar      1 <0>         0.4987
     22 N2         -9.9440    1.2199    0.4690 N.ar      1 <0>        -0.5836
     23 C19        -9.3370    2.3677    0.7083 C.ar      1 <0>         0.3812
     24 N3         -8.0271    2.4952    0.7011 N.ar      1 <0>        -0.5386
     25 C20        -7.2421    1.4507    0.4477 C.ar      1 <0>         0.3372
     26 O3         -5.9105    1.2809    0.3788 O.3       1 <0>        -0.1634
     27 N4         -9.8807   -1.0828   -0.0461 N.pl3     1 <0>        -0.7037
     28 C21       -11.3437   -1.1559   -0.0230 C.3       1 <0>         0.1276
     29 C22       -11.7877   -2.5874   -0.3305 C.3       1 <0>         0.0426
     30 N5        -13.2547   -2.6607   -0.3074 N.3       1 <0>        -0.5337
     31 C23       -13.8387   -1.8758   -1.4043 C.3       1 <0>         0.0166
     32 C24       -15.3651   -1.9294   -1.3094 C.3       1 <0>        -0.0030
     33 N6        -15.8122   -3.3261   -1.3917 N.4       1 <0>        -0.5088
     34 C25       -15.2407   -4.0915   -0.2759 C.3       1 <0>        -0.0028
     35 C26       -13.7133   -4.0560   -0.3622 C.3       1 <0>         0.0254
     36 C27        -6.8500   -2.1715   -0.3708 C.ar      1 <0>        -0.0255
     37 C28        -7.3914   -2.5811   -1.5899 C.ar      1 <0>        -0.1136
     38 C29        -7.4879   -3.9262   -1.8812 C.ar      1 <0>        -0.1169
     39 C30        -7.0493   -4.8681   -0.9677 C.ar      1 <0>        -0.1117
     40 C31        -6.5115   -4.4685    0.2429 C.ar      1 <0>        -0.1132
     41 C32        -6.4047   -3.1263    0.5441 C.ar      1 <0>        -0.0944
     42 H1         -0.5477    0.5789    3.4012 H         1 <0>         0.1097
     43 H2         -1.7569    1.3775    2.3676 H         1 <0>         0.0628
     44 H3         -2.2013   -0.0721    3.3001 H         1 <0>         0.0598
     45 H4         -3.4911    0.4126    1.7213 H         1 <0>         0.1479
     46 H5         -4.6597   -1.5712   -1.9002 H         1 <0>         0.1372
     47 H6         -2.3768   -2.4456   -2.1530 H         1 <0>         0.1429
     48 H7         -0.7808   -3.6823   -1.6356 H         1 <0>         0.0866
     49 H8         -0.3364   -2.2327   -2.5681 H         1 <0>         0.1108
     50 H9          1.5432   -3.8076   -2.5703 H         1 <0>         0.1501
     51 H10         1.9760   -2.3745   -1.6073 H         1 <0>         0.1441
     52 H11         3.3201   -4.9726   -1.2797 H         1 <0>         0.1296
     53 H12         3.5731   -3.4756   -0.3516 H         1 <0>         0.1319
     54 H13         4.3492   -5.4567    0.9231 H         1 <0>         0.1139
     55 H14         2.9750   -4.6705    1.7383 H         1 <0>         0.0882
     56 H15         2.8365   -7.1306   -0.0658 H         1 <0>         0.0824
     57 H16         2.6390   -7.1098    1.7044 H         1 <0>         0.0949
     58 H17         0.4408   -7.1456    0.5068 H         1 <0>         0.1115
     59 H18         0.6485   -5.6757    1.4905 H         1 <0>         0.0874
     60 H19        -0.2421   -5.1241   -0.7580 H         1 <0>         0.1257
     61 H20         1.1721   -5.9008   -1.5085 H         1 <0>         0.1304
     62 H21        -9.9405    3.2383    0.9185 H         1 <0>         0.2162
     63 H22        -9.3584   -1.8774   -0.2375 H         1 <0>         0.4130
     64 H23       -11.7064   -0.8669    0.9634 H         1 <0>         0.0860
     65 H24       -11.7532   -0.4794   -0.7732 H         1 <0>         0.0726
     66 H25       -11.4250   -2.8763   -1.3169 H         1 <0>         0.0535
     67 H26       -11.3783   -3.2638    0.4197 H         1 <0>         0.0946
     68 H27       -13.5056   -0.8407   -1.3283 H         1 <0>         0.1279
     69 H28       -13.5188   -2.2920   -2.3596 H         1 <0>         0.0634
     70 H29       -15.6853   -1.5007   -0.3598 H         1 <0>         0.1423
     71 H30       -15.8003   -1.3596   -2.1304 H         1 <0>         0.1410
     72 H31       -16.8194   -3.3600   -1.3416 H         1 <0>         0.4366
     73 H32       -15.5616   -3.6517    0.6684 H         1 <0>         0.1418
     74 H33       -15.5838   -5.1247   -0.3307 H         1 <0>         0.1407
     75 H34       -13.3914   -4.5080   -1.3003 H         1 <0>         0.0628
     76 H35       -13.2888   -4.6114    0.4741 H         1 <0>         0.1247
     77 H36        -7.7344   -1.8468   -2.3037 H         1 <0>         0.1240
     78 H37        -7.9070   -4.2445   -2.8243 H         1 <0>         0.1269
     79 H38        -7.1273   -5.9199   -1.2003 H         1 <0>         0.1264
     80 H39        -6.1713   -5.2086    0.9520 H         1 <0>         0.1278
     81 H40        -5.9810   -2.8155    1.4876 H         1 <0>         0.1241
     82 H41       -15.5056   -3.7262   -2.2658 H         1 <0>         0.4260
     83 H42         1.2807   -3.6299    0.3459 H         1 <0>         0.4304
@<TRIPOS>BOND
     1    1    2 1
     2    1   42 1
     3    1   43 1
     4    1   44 1
     5    2    3 1
     6    3    8 ar
     7    3    4 ar
     8    4    5 ar
     9    4   45 1
    10    5    6 ar
    11    5   18 1
    12    6    7 ar
    13    6   46 1
    14    7    8 ar
    15    7   47 1
    16    8    9 1
    17    9   10 1
    18   10   11 1
    19   10   48 1
    20   10   49 1
    21   11   12 1
    22   11   50 1
    23   11   51 1
    24   12   17 1
    25   12   13 1
    26   12   83 1
    27   13   14 1
    28   13   52 1
    29   13   53 1
    30   14   15 1
    31   14   54 1
    32   14   55 1
    33   15   16 1
    34   15   56 1
    35   15   57 1
    36   16   17 1
    37   16   58 1
    38   16   59 1
    39   17   60 1
    40   17   61 1
    41   18   26 1
    42   18   19 2
    43   19   20 1
    44   19   36 1
    45   20   25 ar
    46   20   21 ar
    47   21   22 ar
    48   21   27 1
    49   22   23 ar
    50   23   24 ar
    51   23   62 1
    52   24   25 ar
    53   25   26 1
    54   27   28 1
    55   27   63 1
    56   28   29 1
    57   28   64 1
    58   28   65 1
    59   29   30 1
    60   29   66 1
    61   29   67 1
    62   30   35 1
    63   30   31 1
    64   31   32 1
    65   31   68 1
    66   31   69 1
    67   32   33 1
    68   32   70 1
    69   32   71 1
    70   33   34 1
    71   33   72 1
    72   33   82 1
    73   34   35 1
    74   34   73 1
    75   34   74 1
    76   35   75 1
    77   35   76 1
    78   36   41 ar
    79   36   37 ar
    80   37   38 ar
    81   37   77 1
    82   38   39 ar
    83   38   78 1
    84   39   40 ar
    85   39   79 1
    86   40   41 ar
    87   40   80 1
    88   41   81 1
@<TRIPOS>MOLECULE
CHEMBL247469
   77    82     0     0     0
SMALL
USER_CHARGES

@<TRIPOS>ATOM
      1 C1         -0.1166    1.1845    0.1380 C.ar      1 <0>        -0.1106
      2 C2          1.0276    1.9376   -0.0570 C.ar      1 <0>        -0.1132
      3 C3          2.2617    1.3227   -0.1057 C.ar      1 <0>        -0.0958
      4 C4          2.3543   -0.0617    0.0422 C.ar      1 <0>        -0.0279
      5 C5          1.1967   -0.8155    0.2386 C.ar      1 <0>        -0.1135
      6 C6         -0.0314   -0.1886    0.2853 C.ar      1 <0>        -0.1153
      7 C7          3.6750   -0.7279   -0.0095 C.2       1 <0>        -0.0820
      8 C8          4.1675   -1.6419   -1.0482 C.ar      1 <0>        -0.2793
      9 C9          3.6470   -2.1702   -2.2371 C.ar      1 <0>         0.4961
     10 N1          4.4095   -2.9986   -2.9463 N.ar      1 <0>        -0.5856
     11 C10         5.6254   -3.3149   -2.5406 C.ar      1 <0>         0.3796
     12 N2          6.1512   -2.8413   -1.4308 N.ar      1 <0>        -0.5405
     13 C11         5.4657   -2.0054   -0.6545 C.ar      1 <0>         0.3353
     14 O1          5.7338   -1.3772    0.5032 O.3       1 <0>        -0.1647
     15 C12         4.6936   -0.6156    0.8977 C.2       1 <0>         0.0767
     16 C13         4.6576    0.2088    2.1200 C.ar      1 <0>        -0.0486
     17 C14         3.5515    0.1508    2.9723 C.ar      1 <0>        -0.0392
     18 C15         3.5226    0.9225    4.1136 C.ar      1 <0>        -0.1396
     19 C16         4.5904    1.7572    4.4175 C.ar      1 <0>         0.1313
     20 C17         5.6918    1.8182    3.5735 C.ar      1 <0>        -0.2009
     21 C18         5.7321    1.0462    2.4327 C.ar      1 <0>        -0.0461
     22 O2          4.5573    2.5166    5.5436 O.3       1 <0>        -0.3218
     23 C19         5.6885    3.3526    5.7958 C.3       1 <0>         0.0260
     24 C20         5.4709    4.1259    7.0979 C.3       1 <0>         0.0011
     25 N3          5.4245    3.1844    8.2247 N.4       1 <0>        -0.3918
     26 C21         4.2308    2.3207    8.1025 C.3       1 <0>        -0.0019
     27 C22         3.7504    2.1014    9.5588 C.3       1 <0>        -0.1458
     28 C23         4.0350    3.4876   10.1947 C.3       1 <0>        -0.1421
     29 C24         5.3354    3.9318    9.4925 C.3       1 <0>        -0.0137
     30 N4          2.3729   -1.8395   -2.6624 N.pl3     1 <0>        -0.7031
     31 C25         1.8473   -2.4028   -3.9085 C.3       1 <0>         0.1231
     32 C26         0.4290   -1.8804   -4.1460 C.3       1 <0>        -0.1317
     33 C27        -0.1199   -2.4687   -5.4473 C.3       1 <0>        -0.0957
     34 C28         0.6982   -1.9450   -6.6312 C.3       1 <0>        -0.1499
     35 C29         0.0952   -2.4735   -7.9345 C.3       1 <0>        -0.0076
     36 N5         -1.2938   -2.0148   -8.0566 N.4       1 <0>        -0.5060
     37 C30        -2.1002   -2.5720   -6.9640 C.3       1 <0>        -0.0073
     38 C31        -1.5816   -2.0472   -5.6233 C.3       1 <0>        -0.1438
     39 H1         -1.0799    1.6711    0.1799 H         1 <0>         0.1270
     40 H2          0.9545    3.0090   -0.1716 H         1 <0>         0.1277
     41 H3          3.1541    1.9115   -0.2583 H         1 <0>         0.1231
     42 H4          1.2618   -1.8874    0.3534 H         1 <0>         0.1242
     43 H5         -0.9282   -0.7708    0.4376 H         1 <0>         0.1282
     44 H6          6.2130   -3.9906   -3.1443 H         1 <0>         0.2151
     45 H7          2.7206   -0.4976    2.7367 H         1 <0>         0.1391
     46 H8          2.6681    0.8786    4.7727 H         1 <0>         0.1408
     47 H9          6.5197    2.4689    3.8136 H         1 <0>         0.1359
     48 H10         6.5909    1.0909    1.7793 H         1 <0>         0.1377
     49 H11         6.5832    2.7363    5.8844 H         1 <0>         0.0887
     50 H12         5.8116    4.0556    4.9720 H         1 <0>         0.1111
     51 H13         6.2914    4.8282    7.2449 H         1 <0>         0.1508
     52 H14         4.5298    4.6730    7.0427 H         1 <0>         0.1410
     53 H15         3.4580    2.8216    7.5194 H         1 <0>         0.1370
     54 H16         4.4966    1.3686    7.6432 H         1 <0>         0.1334
     55 H17         2.6857    1.8696    9.5880 H         1 <0>         0.1163
     56 H18         4.3321    1.3204   10.0483 H         1 <0>         0.0975
     57 H19         3.2241    4.1837    9.9804 H         1 <0>         0.0987
     58 H20         4.1901    3.3940   11.2695 H         1 <0>         0.1134
     59 H21         6.1946    3.6990   10.1214 H         1 <0>         0.1336
     60 H22         5.3004    5.0023    9.2901 H         1 <0>         0.1323
     61 H23         1.8275   -1.2346   -2.1356 H         1 <0>         0.4138
     62 H24         2.4875   -2.1067   -4.7395 H         1 <0>         0.0726
     63 H25         1.8265   -3.4901   -3.8353 H         1 <0>         0.0750
     64 H26        -0.2112   -2.1765   -3.3149 H         1 <0>         0.0817
     65 H27         0.4498   -0.7931   -4.2191 H         1 <0>         0.0762
     66 H28        -0.0559   -3.5562   -5.4112 H         1 <0>         0.0958
     67 H29         0.6758   -0.8552   -6.6354 H         1 <0>         0.0900
     68 H30         1.7289   -2.2881   -6.5416 H         1 <0>         0.1161
     69 H31         0.6754   -2.1027   -8.7794 H         1 <0>         0.1347
     70 H32         0.1184   -3.5633   -7.9293 H         1 <0>         0.1322
     71 H33        -1.3193   -1.0071   -8.0120 H         1 <0>         0.4276
     72 H34        -3.1407   -2.2739   -7.0924 H         1 <0>         0.1344
     73 H35        -2.0302   -3.6597   -6.9795 H         1 <0>         0.1317
     74 H36        -2.1805   -2.4635   -4.8133 H         1 <0>         0.1132
     75 H37        -1.6514   -0.9596   -5.6067 H         1 <0>         0.0896
     76 H38        -1.6711   -2.3200   -8.9412 H         1 <0>         0.4334
     77 H39         6.2560    2.6129    8.2251 H         1 <0>         0.4251
@<TRIPOS>BOND
     1    1    6 ar
     2    1    2 ar
     3    1   39 1
     4    2    3 ar
     5    2   40 1
     6    3    4 ar
     7    3   41 1
     8    4    5 ar
     9    4    7 1
    10    5    6 ar
    11    5   42 1
    12    6   43 1
    13    7   15 2
    14    7    8 1
    15    8   13 ar
    16    8    9 ar
    17    9   10 ar
    18    9   30 1
    19   10   11 ar
    20   11   12 ar
    21   11   44 1
    22   12   13 ar
    23   13   14 1
    24   14   15 1
    25   15   16 1
    26   16   21 ar
    27   16   17 ar
    28   17   18 ar
    29   17   45 1
    30   18   19 ar
    31   18   46 1
    32   19   20 ar
    33   19   22 1
    34   20   21 ar
    35   20   47 1
    36   21   48 1
    37   22   23 1
    38   23   24 1
    39   23   49 1
    40   23   50 1
    41   24   25 1
    42   24   51 1
    43   24   52 1
    44   25   29 1
    45   25   26 1
    46   25   77 1
    47   26   27 1
    48   26   53 1
    49   26   54 1
    50   27   28 1
    51   27   55 1
    52   27   56 1
    53   28   29 1
    54   28   57 1
    55   28   58 1
    56   29   59 1
    57   29   60 1
    58   30   31 1
    59   30   61 1
    60   31   32 1
    61   31   62 1
    62   31   63 1
    63   32   33 1
    64   32   64 1
    65   32   65 1
    66   33   38 1
    67   33   34 1
    68   33   66 1
    69   34   35 1
    70   34   67 1
    71   34   68 1
    72   35   36 1
    73   35   69 1
    74   35   70 1
    75   36   37 1
    76   36   71 1
    77   36   76 1
    78   37   38 1
    79   37   72 1
    80   37   73 1
    81   38   74 1
    82   38   75 1
@<TRIPOS>MOLECULE
CHEMBL247667
   71    76     0     0     0
SMALL
USER_CHARGES

@<TRIPOS>ATOM
      1 C1          0.1410    1.6751    0.0554 C.ar      1 <0>        -0.1178
      2 C2          1.3252    2.3748    0.1936 C.ar      1 <0>        -0.1166
      3 C3          2.5322    1.7012    0.1748 C.ar      1 <0>        -0.1132
      4 C4          2.5550    0.3279    0.0181 C.ar      1 <0>        -0.0856
      5 C5          1.3708   -0.3718   -0.1192 C.ar      1 <0>        -0.1133
      6 C6          0.1638    0.3019   -0.1018 C.ar      1 <0>        -0.1169
      7 C7          3.8709   -0.4062   -0.0034 C.3       1 <0>        -0.0916
      8 C8          4.2479   -0.8191    1.4208 C.3       1 <0>         0.1288
      9 N1          5.5271   -1.5328    1.3998 N.pl3     1 <0>        -0.6971
     10 C9          6.0744   -2.0063    2.5788 C.ar      1 <0>         0.4994
     11 C10         7.2996   -2.6861    2.5801 C.ar      1 <0>        -0.2848
     12 C11         8.2753   -3.0795    1.5553 C.2       1 <0>        -0.0733
     13 C12         9.2749   -3.7302    2.2265 C.2       1 <0>         0.0640
     14 O1          8.9874   -3.7603    3.5433 O.3       1 <0>        -0.1664
     15 C13         7.8181   -3.1491    3.8005 C.ar      1 <0>         0.3361
     16 N2          7.1202   -2.9224    4.9108 N.ar      1 <0>        -0.5478
     17 C14         5.9724   -2.2801    4.8659 C.ar      1 <0>         0.3820
     18 N3          5.4534   -1.8230    3.7412 N.ar      1 <0>        -0.5827
     19 C15        10.4804   -4.3095    1.6051 C.ar      1 <0>        -0.0398
     20 C16        11.7400   -4.0691    2.1609 C.ar      1 <0>        -0.0486
     21 C17        12.8635   -4.6129    1.5770 C.ar      1 <0>        -0.1393
     22 C18        12.7456   -5.3989    0.4379 C.ar      1 <0>         0.1279
     23 C19        11.4959   -5.6405   -0.1181 C.ar      1 <0>        -0.1999
     24 C20        10.3662   -5.1053    0.4619 C.ar      1 <0>        -0.0398
     25 O2         13.8562   -5.9326   -0.1346 O.3       1 <0>        -0.3256
     26 C21        13.6634   -6.7309   -1.3040 C.3       1 <0>         0.0254
     27 C22        15.0171   -7.2412   -1.8021 C.3       1 <0>         0.0038
     28 N4         15.5959   -8.1491   -0.8028 N.4       1 <0>        -0.3961
     29 C23        14.8021   -9.4023   -0.7287 C.3       1 <0>        -0.0108
     30 C24        15.7989  -10.4176   -0.1154 C.3       1 <0>        -0.1448
     31 C25        17.1426  -10.0203   -0.7684 C.3       1 <0>        -0.1451
     32 C26        16.9570   -8.5576   -1.2127 C.3       1 <0>        -0.0086
     33 C27         8.1944   -2.8252    0.0995 C.ar      1 <0>        -0.0298
     34 C28         7.2102   -3.4500   -0.6672 C.ar      1 <0>        -0.1130
     35 C29         7.1401   -3.2088   -2.0238 C.ar      1 <0>        -0.1143
     36 C30         8.0432   -2.3495   -2.6242 C.ar      1 <0>        -0.1105
     37 C31         9.0215   -1.7269   -1.8695 C.ar      1 <0>        -0.1140
     38 C32         9.0985   -1.9553   -0.5111 C.ar      1 <0>        -0.0960
     39 H1         -0.8022    2.2008    0.0746 H         1 <0>         0.1237
     40 H2          1.3073    3.4476    0.3160 H         1 <0>         0.1240
     41 H3          3.4574    2.2479    0.2821 H         1 <0>         0.1213
     42 H4          1.3886   -1.4447   -0.2419 H         1 <0>         0.1211
     43 H5         -0.7614   -0.2448   -0.2094 H         1 <0>         0.1239
     44 H6          3.7807   -1.2952   -0.6276 H         1 <0>         0.0784
     45 H7          4.6442    0.2459   -0.4094 H         1 <0>         0.0783
     46 H8          4.3380    0.0699    2.0450 H         1 <0>         0.0762
     47 H9          3.4746   -1.4712    1.8268 H         1 <0>         0.0766
     48 H10         5.9904   -1.6733    0.5593 H         1 <0>         0.4123
     49 H11         5.4351   -2.1154    5.7882 H         1 <0>         0.2143
     50 H12        11.8327   -3.4579    3.0464 H         1 <0>         0.1428
     51 H13        13.8374   -4.4275    2.0056 H         1 <0>         0.1405
     52 H14        11.4091   -6.2520   -1.0041 H         1 <0>         0.1341
     53 H15         9.3945   -5.2974    0.0315 H         1 <0>         0.1359
     54 H16        13.0217   -7.5785   -1.0635 H         1 <0>         0.0869
     55 H17        13.1936   -6.1287   -2.0817 H         1 <0>         0.1100
     56 H18        14.8804   -7.7753   -2.7423 H         1 <0>         0.1493
     57 H19        15.6886   -6.3969   -1.9580 H         1 <0>         0.1419
     58 H20        13.9370   -9.2718   -0.0785 H         1 <0>         0.1335
     59 H21        14.4921   -9.7208   -1.7240 H         1 <0>         0.1350
     60 H22        15.8478  -10.3040    0.9676 H         1 <0>         0.0986
     61 H23        15.5255  -11.4377   -0.3853 H         1 <0>         0.1175
     62 H24        17.9526  -10.0955   -0.0429 H         1 <0>         0.1058
     63 H25        17.3463  -10.6548   -1.6310 H         1 <0>         0.1045
     64 H26        17.0568   -8.4829   -2.2955 H         1 <0>         0.1315
     65 H27        17.6976   -7.9244   -0.7243 H         1 <0>         0.1332
     66 H28         6.5049   -4.1212   -0.1998 H         1 <0>         0.1245
     67 H29         6.3790   -3.6920   -2.6185 H         1 <0>         0.1287
     68 H30         7.9844   -2.1642   -3.6866 H         1 <0>         0.1267
     69 H31         9.7237   -1.0575   -2.3441 H         1 <0>         0.1272
     70 H32         9.8598   -1.4652    0.0777 H         1 <0>         0.1232
     71 H33        15.6245   -7.7003    0.1005 H         1 <0>         0.4337
@<TRIPOS>BOND
     1    1    6 ar
     2    1    2 ar
     3    1   39 1
     4    2    3 ar
     5    2   40 1
     6    3    4 ar
     7    3   41 1
     8    4    5 ar
     9    4    7 1
    10    5    6 ar
    11    5   42 1
    12    6   43 1
    13    7    8 1
    14    7   44 1
    15    7   45 1
    16    8    9 1
    17    8   46 1
    18    8   47 1
    19    9   10 1
    20    9   48 1
    21   10   18 ar
    22   10   11 ar
    23   11   15 ar
    24   11   12 1
    25   12   13 2
    26   12   33 1
    27   13   14 1
    28   13   19 1
    29   14   15 1
    30   15   16 ar
    31   16   17 ar
    32   17   18 ar
    33   17   49 1
    34   19   24 ar
    35   19   20 ar
    36   20   21 ar
    37   20   50 1
    38   21   22 ar
    39   21   51 1
    40   22   23 ar
    41   22   25 1
    42   23   24 ar
    43   23   52 1
    44   24   53 1
    45   25   26 1
    46   26   27 1
    47   26   54 1
    48   26   55 1
    49   27   28 1
    50   27   56 1
    51   27   57 1
    52   28   32 1
    53   28   29 1
    54   28   71 1
    55   29   30 1
    56   29   58 1
    57   29   59 1
    58   30   31 1
    59   30   60 1
    60   30   61 1
    61   31   32 1
    62   31   62 1
    63   31   63 1
    64   32   64 1
    65   32   65 1
    66   33   38 ar
    67   33   34 ar
    68   34   35 ar
    69   34   66 1
    70   35   36 ar
    71   35   67 1
    72   36   37 ar
    73   36   68 1
    74   37   38 ar
    75   37   69 1
    76   38   70 1
@<TRIPOS>MOLECULE
CHEMBL247866
   64    68     0     0     0
SMALL
USER_CHARGES

@<TRIPOS>ATOM
      1 C1         -0.0691    1.6719   -0.1753 C.3       1 <0>        -0.1638
      2 C2         -0.0513    0.1516   -0.0043 C.3       1 <0>         0.1394
      3 C3          0.6374   -0.2052    1.3145 C.3       1 <0>        -0.1640
      4 N1         -1.4261   -0.3543    0.0102 N.pl3     1 <0>        -0.6913
      5 C4         -2.0747   -0.6288   -1.1804 C.ar      1 <0>         0.5009
      6 C5         -3.3915   -1.1077   -1.1874 C.ar      1 <0>        -0.2863
      7 C6         -4.3875   -1.4363   -0.1593 C.2       1 <0>        -0.0727
      8 C7         -5.4960   -1.8609   -0.8403 C.2       1 <0>         0.0627
      9 O1         -5.2547   -1.8160   -2.1659 O.3       1 <0>        -0.1667
     10 C8         -4.0113   -1.3726   -2.4196 C.ar      1 <0>         0.3361
     11 N2         -3.3183   -1.1573   -3.5353 N.ar      1 <0>        -0.5491
     12 C9         -2.0826   -0.7072   -3.4848 C.ar      1 <0>         0.3815
     13 N3         -1.4660   -0.4395   -2.3483 N.ar      1 <0>        -0.5833
     14 C10        -6.7597   -2.3003   -0.2197 C.ar      1 <0>        -0.0394
     15 C11        -7.9809   -1.8185   -0.6993 C.ar      1 <0>        -0.0492
     16 C12        -9.1591   -2.2323   -0.1165 C.ar      1 <0>        -0.1400
     17 C13        -9.1343   -3.1267    0.9458 C.ar      1 <0>         0.1257
     18 C14        -7.9232   -3.6082    1.4258 C.ar      1 <0>        -0.1992
     19 C15        -6.7401   -3.2043    0.8460 C.ar      1 <0>        -0.0399
     20 O2        -10.2985   -3.5315    1.5175 O.3       1 <0>        -0.3226
     21 C16       -10.2009   -4.4525    2.6058 C.3       1 <0>         0.0264
     22 C17       -11.6034   -4.7899    3.1156 C.3       1 <0>         0.0012
     23 N4        -12.3468   -5.5031    2.0684 N.4       1 <0>        -0.3916
     24 C18       -12.5769   -4.6013    0.9196 C.3       1 <0>        -0.0021
     25 C19       -13.9824   -4.9832    0.3922 C.3       1 <0>        -0.1458
     26 C20       -14.7404   -5.2866    1.7114 C.3       1 <0>        -0.1421
     27 C21       -13.6543   -5.9356    2.5950 C.3       1 <0>        -0.0134
     28 C22        -4.2259   -1.3302    1.3081 C.ar      1 <0>        -0.0294
     29 C23        -3.3312   -2.1666    1.9767 C.ar      1 <0>        -0.1123
     30 C24        -3.1852   -2.0628    3.3447 C.ar      1 <0>        -0.1142
     31 C25        -3.9236   -1.1319    4.0535 C.ar      1 <0>        -0.1108
     32 C26        -4.8124   -0.2996    3.3964 C.ar      1 <0>        -0.1143
     33 C27        -4.9634   -0.3896    2.0280 C.ar      1 <0>        -0.0961
     34 H1          0.9538    2.0483   -0.1861 H         1 <0>         0.0706
     35 H2         -0.5597    1.9261   -1.1149 H         1 <0>         0.0624
     36 H3         -0.6140    2.1244    0.6532 H         1 <0>         0.0539
     37 H4          0.4936   -0.3009   -0.8328 H         1 <0>         0.0976
     38 H5          0.0925    0.2473    2.1430 H         1 <0>         0.0600
     39 H6          0.6501   -1.2883    1.4364 H         1 <0>         0.0618
     40 H7          1.6603    0.1712    1.3037 H         1 <0>         0.0796
     41 H8         -1.8816   -0.4968    0.8547 H         1 <0>         0.4107
     42 H9         -1.5527   -0.5449   -4.4117 H         1 <0>         0.2138
     43 H10        -8.0011   -1.1227   -1.5250 H         1 <0>         0.1422
     44 H11       -10.1032   -1.8602   -0.4862 H         1 <0>         0.1398
     45 H12        -7.9088   -4.3033    2.2523 H         1 <0>         0.1341
     46 H13        -5.7991   -3.5826    1.2170 H         1 <0>         0.1354
     47 H14        -9.7083   -5.3640    2.2673 H         1 <0>         0.0874
     48 H15        -9.6199   -4.0031    3.4111 H         1 <0>         0.1105
     49 H16       -11.5261   -5.4215    4.0006 H         1 <0>         0.1495
     50 H17       -12.1284   -3.8693    3.3710 H         1 <0>         0.1409
     51 H18       -12.5634   -3.5611    1.2451 H         1 <0>         0.1378
     52 H19       -11.8241   -4.7685    0.1492 H         1 <0>         0.1344
     53 H20       -14.4405   -4.1484   -0.1382 H         1 <0>         0.1165
     54 H21       -13.9341   -5.8679   -0.2427 H         1 <0>         0.0971
     55 H22       -15.1074   -4.3662    2.1654 H         1 <0>         0.0986
     56 H23       -15.5596   -5.9833    1.5337 H         1 <0>         0.1125
     57 H24       -13.7341   -7.0214    2.5432 H         1 <0>         0.1326
     58 H25       -13.7673   -5.6020    3.6265 H         1 <0>         0.1318
     59 H26        -2.7545   -2.8939    1.4245 H         1 <0>         0.1243
     60 H27        -2.4933   -2.7098    3.8634 H         1 <0>         0.1287
     61 H28        -3.8060   -1.0548    5.1243 H         1 <0>         0.1267
     62 H29        -5.3862    0.4247    3.9554 H         1 <0>         0.1270
     63 H30        -5.6542    0.2637    1.5157 H         1 <0>         0.1230
     64 H31       -11.8196   -6.3083    1.7652 H         1 <0>         0.4247
@<TRIPOS>BOND
     1    1    2 1
     2    1   34 1
     3    1   35 1
     4    1   36 1
     5    2    3 1
     6    2    4 1
     7    2   37 1
     8    3   38 1
     9    3   39 1
    10    3   40 1
    11    4    5 1
    12    4   41 1
    13    5   13 ar
    14    5    6 ar
    15    6   10 ar
    16    6    7 1
    17    7    8 2
    18    7   28 1
    19    8    9 1
    20    8   14 1
    21    9   10 1
    22   10   11 ar
    23   11   12 ar
    24   12   13 ar
    25   12   42 1
    26   14   19 ar
    27   14   15 ar
    28   15   16 ar
    29   15   43 1
    30   16   17 ar
    31   16   44 1
    32   17   18 ar
    33   17   20 1
    34   18   19 ar
    35   18   45 1
    36   19   46 1
    37   20   21 1
    38   21   22 1
    39   21   47 1
    40   21   48 1
    41   22   23 1
    42   22   49 1
    43   22   50 1
    44   23   27 1
    45   23   24 1
    46   23   64 1
    47   24   25 1
    48   24   51 1
    49   24   52 1
    50   25   26 1
    51   25   53 1
    52   25   54 1
    53   26   27 1
    54   26   55 1
    55   26   56 1
    56   27   57 1
    57   27   58 1
    58   28   33 ar
    59   28   29 ar
    60   29   30 ar
    61   29   59 1
    62   30   31 ar
    63   30   60 1
    64   31   32 ar
    65   31   61 1
    66   32   33 ar
    67   32   62 1
    68   33   63 1
@<TRIPOS>MOLECULE
CHEMBL27532
   58    62     0     0     0
SMALL
USER_CHARGES

@<TRIPOS>ATOM
      1 C1          0.1199    0.9011    3.4907 C.3       1 <0>        -0.1224
      2 C2          0.2213   -0.5475    3.0875 C.2       1 <0>         0.1375
      3 C3         -0.7443   -1.3968    3.4747 C.2       1 <0>        -0.1590
      4 C4         -0.6601   -2.8067    3.0905 C.ar      1 <0>         0.0285
      5 C5         -1.6391   -3.7318    3.4673 C.ar      1 <0>        -0.1333
      6 C6         -1.5309   -5.0372    3.0932 C.ar      1 <0>        -0.0284
      7 C7         -0.4414   -5.4761    2.3265 C.ar      1 <0>         0.0618
      8 C8          0.5528   -4.5678    1.9358 C.ar      1 <0>         0.1043
      9 C9          0.4472   -3.2254    2.3177 C.ar      1 <0>        -0.1405
     10 C10         1.4503   -2.2277    1.9428 C.2       1 <0>         0.5469
     11 N1          1.2892   -0.9490    2.3365 N.am      1 <0>        -0.6214
     12 O1          2.4189   -2.5491    1.2773 O.2       1 <0>        -0.5402
     13 N2          1.4727   -5.2905    1.2054 N.pl3     1 <0>        -0.4913
     14 C11         1.0354   -6.5840    1.1660 C.2       1 <0>         0.5363
     15 N3         -0.0904   -6.6904    1.8261 N.2       1 <0>        -0.5137
     16 N4          1.6829   -7.6225    0.5267 N.pl3     1 <0>        -0.6562
     17 C12         1.1976   -8.9294    0.6470 C.ar      1 <0>         0.1767
     18 C13        -0.0020   -9.2852    0.0425 C.ar      1 <0>        -0.0095
     19 C14        -0.4781  -10.5773    0.1631 C.ar      1 <0>        -0.0998
     20 C15         0.2377  -11.5152    0.8841 C.ar      1 <0>        -0.0901
     21 C16         1.4316  -11.1646    1.4874 C.ar      1 <0>        -0.1002
     22 C17         1.9168   -9.8760    1.3664 C.ar      1 <0>        -0.0282
     23 Cl1         3.4196   -9.4391    2.1177 Cl        1 <0>        -0.0486
     24 Cl2        -0.9018   -8.1084   -0.8626 Cl        1 <0>        -0.0393
     25 C18         2.6930   -4.7676    0.5861 C.3       1 <0>         0.0857
     26 C19        -1.9052   -0.9022    4.2987 C.3       1 <0>        -0.0587
     27 C20        -3.0788   -0.5664    3.3763 C.3       1 <0>         0.0583
     28 N5         -4.2104   -0.0843    4.1795 N.3       1 <0>        -0.5365
     29 C21        -4.7423   -1.1543    5.0360 C.3       1 <0>         0.0122
     30 C22        -5.8779   -0.5945    5.8968 C.3       1 <0>         0.0624
     31 O2         -6.8812   -0.0324    5.0467 O.3       1 <0>        -0.3855
     32 C23        -6.3978    1.0133    4.1992 C.3       1 <0>         0.0632
     33 C24        -5.2675    0.4698    3.3211 C.3       1 <0>         0.0172
     34 H1          0.9745    1.4493    3.0943 H         1 <0>         0.0709
     35 H2         -0.8012    1.3257    3.0914 H         1 <0>         0.0903
     36 H3          0.1128    0.9759    4.5781 H         1 <0>         0.0919
     37 H4         -2.4842   -3.4099    4.0577 H         1 <0>         0.1358
     38 H5         -2.2927   -5.7426    3.3908 H         1 <0>         0.1347
     39 H6          2.4743   -7.4461   -0.0058 H         1 <0>         0.4213
     40 H7         -1.4105  -10.8545   -0.3062 H         1 <0>         0.1446
     41 H8         -0.1367  -12.5240    0.9767 H         1 <0>         0.1462
     42 H9          1.9878  -11.8998    2.0501 H         1 <0>         0.1449
     43 H10         3.4314   -4.5568    1.3597 H         1 <0>         0.0775
     44 H11         3.0941   -5.5069   -0.1072 H         1 <0>         0.0641
     45 H12         2.4615   -3.8501    0.0450 H         1 <0>         0.1131
     46 H13        -2.2070   -1.6772    5.0032 H         1 <0>         0.0773
     47 H14        -1.6069   -0.0087    4.8471 H         1 <0>         0.0866
     48 H15        -2.7771    0.2086    2.6718 H         1 <0>         0.0763
     49 H16        -3.3771   -1.4599    2.8279 H         1 <0>         0.0411
     50 H17        -5.1228   -1.9638    4.4131 H         1 <0>         0.0451
     51 H18        -3.9491   -1.5324    5.6809 H         1 <0>         0.0901
     52 H19        -6.3131   -1.3973    6.4920 H         1 <0>         0.0983
     53 H20        -5.4863    0.1785    6.5581 H         1 <0>         0.0602
     54 H21        -7.2091    1.3734    3.5665 H         1 <0>         0.0978
     55 H22        -6.0213    1.8330    4.8111 H         1 <0>         0.0602
     56 H23        -4.8577    1.2772    2.7143 H         1 <0>         0.0861
     57 H24        -5.6564   -0.3137    2.6709 H         1 <0>         0.0439
     58 H25         1.9560   -0.2924    2.0811 H         1 <0>         0.4133
@<TRIPOS>BOND
     1    1    2 1
     2    1   34 1
     3    1   35 1
     4    1   36 1
     5    2   11 1
     6    2    3 2
     7    3    4 1
     8    3   26 1
     9    4    9 ar
    10    4    5 ar
    11    5    6 ar
    12    5   37 1
    13    6    7 ar
    14    6   38 1
    15    7   15 1
    16    7    8 ar
    17    8    9 ar
    18    8   13 1
    19    9   10 1
    20   10   11 am
    21   10   12 2
    22   11   58 1
    23   13   14 1
    24   13   25 1
    25   14   15 2
    26   14   16 1
    27   16   17 1
    28   16   39 1
    29   17   22 ar
    30   17   18 ar
    31   18   19 ar
    32   18   24 1
    33   19   20 ar
    34   19   40 1
    35   20   21 ar
    36   20   41 1
    37   21   22 ar
    38   21   42 1
    39   22   23 1
    40   25   43 1
    41   25   44 1
    42   25   45 1
    43   26   27 1
    44   26   46 1
    45   26   47 1
    46   27   28 1
    47   27   48 1
    48   27   49 1
    49   28   33 1
    50   28   29 1
    51   29   30 1
    52   29   50 1
    53   29   51 1
    54   30   31 1
    55   30   52 1
    56   30   53 1
    57   31   32 1
    58   32   33 1
    59   32   54 1
    60   32   55 1
    61   33   56 1
    62   33   57 1
@<TRIPOS>MOLECULE
CHEMBL27532__1
   59    63     0     0     0
SMALL
USER_CHARGES

@<TRIPOS>ATOM
      1 C1          0.1199    0.9011    3.4907 C.3       1 <0>        -0.1329
      2 C2          0.2213   -0.5475    3.0875 C.2       1 <0>         0.1666
      3 C3         -0.7443   -1.3968    3.4747 C.2       1 <0>        -0.1853
      4 C4         -0.6601   -2.8067    3.0905 C.ar      1 <0>         0.0170
      5 C5         -1.6391   -3.7318    3.4673 C.ar      1 <0>        -0.1467
      6 C6         -1.5309   -5.0372    3.0932 C.ar      1 <0>        -0.0225
      7 C7         -0.4414   -5.4761    2.3265 C.ar      1 <0>         0.0701
      8 C8          0.5528   -4.5678    1.9358 C.ar      1 <0>         0.1049
      9 C9          0.4472   -3.2254    2.3177 C.ar      1 <0>        -0.1315
     10 C10         1.4503   -2.2277    1.9428 C.2       1 <0>         0.5466
     11 N1          1.2892   -0.9490    2.3365 N.am      1 <0>        -0.6232
     12 O1          2.4189   -2.5491    1.2773 O.2       1 <0>        -0.5203
     13 N2          1.4727   -5.2905    1.2054 N.pl3     1 <0>        -0.4918
     14 C11         1.0354   -6.5840    1.1660 C.2       1 <0>         0.5495
     15 N3         -0.0904   -6.6904    1.8261 N.2       1 <0>        -0.5146
     16 N4          1.6829   -7.6225    0.5267 N.pl3     1 <0>        -0.6522
     17 C12         1.1976   -8.9294    0.6470 C.ar      1 <0>         0.1693
     18 C13        -0.0020   -9.2852    0.0425 C.ar      1 <0>        -0.0084
     19 C14        -0.4781  -10.5773    0.1631 C.ar      1 <0>        -0.0991
     20 C15         0.2377  -11.5152    0.8841 C.ar      1 <0>        -0.0860
     21 C16         1.4316  -11.1646    1.4874 C.ar      1 <0>        -0.0983
     22 C17         1.9168   -9.8760    1.3664 C.ar      1 <0>        -0.0268
     23 Cl1         3.4196   -9.4391    2.1177 Cl        1 <0>        -0.0465
     24 Cl2        -0.9018   -8.1084   -0.8626 Cl        1 <0>        -0.0421
     25 C18         2.6930   -4.7676    0.5861 C.3       1 <0>         0.0820
     26 C19        -1.9052   -0.9022    4.2987 C.3       1 <0>        -0.0812
     27 C20        -3.0788   -0.5664    3.3763 C.3       1 <0>        -0.0123
     28 N5         -4.2104   -0.0843    4.1795 N.4       1 <0>        -0.3852
     29 C21        -4.6949   -1.1690    5.0442 C.3       1 <0>        -0.0511
     30 C22        -5.8737   -0.6642    5.8801 C.3       1 <0>         0.0364
     31 O2         -6.9021   -0.1895    5.0067 O.3       1 <0>        -0.3564
     32 C23        -6.4718    0.8528    4.1268 C.3       1 <0>         0.0360
     33 C24        -5.2941    0.3508    3.2876 C.3       1 <0>        -0.0437
     34 H1          0.9745    1.4493    3.0943 H         1 <0>         0.0825
     35 H2         -0.8012    1.3257    3.0914 H         1 <0>         0.0857
     36 H3          0.1128    0.9759    4.5781 H         1 <0>         0.0955
     37 H4         -2.4842   -3.4099    4.0577 H         1 <0>         0.1285
     38 H5         -2.2927   -5.7426    3.3908 H         1 <0>         0.1374
     39 H6          2.4743   -7.4461   -0.0058 H         1 <0>         0.4234
     40 H7         -1.4105  -10.8545   -0.3062 H         1 <0>         0.1462
     41 H8         -0.1367  -12.5240    0.9767 H         1 <0>         0.1486
     42 H9          1.9878  -11.8998    2.0501 H         1 <0>         0.1472
     43 H10         3.4314   -4.5568    1.3597 H         1 <0>         0.0805
     44 H11         3.0941   -5.5069   -0.1072 H         1 <0>         0.0700
     45 H12         2.4615   -3.8501    0.0450 H         1 <0>         0.1132
     46 H13        -2.2070   -1.6772    5.0032 H         1 <0>         0.0997
     47 H14        -1.6069   -0.0087    4.8471 H         1 <0>         0.0982
     48 H15        -2.7771    0.2086    2.6718 H         1 <0>         0.1332
     49 H16        -3.3771   -1.4599    2.8279 H         1 <0>         0.1360
     50 H17        -5.0188   -2.0080    4.4282 H         1 <0>         0.1414
     51 H18        -3.8917   -1.4925    5.7063 H         1 <0>         0.1449
     52 H19        -6.2623   -1.4791    6.4908 H         1 <0>         0.1420
     53 H20        -5.5405    0.1485    6.5256 H         1 <0>         0.0811
     54 H21        -7.2932    1.1359    3.4686 H         1 <0>         0.1413
     55 H22        -6.1591    1.7174    4.7123 H         1 <0>         0.0809
     56 H23        -4.9358    1.1556    2.6458 H         1 <0>         0.1422
     57 H24        -5.6178   -0.4887    2.6723 H         1 <0>         0.1397
     58 H25         1.9560   -0.2924    2.0811 H         1 <0>         0.4186
     59 H26        -3.9115    0.6926    4.7497 H         1 <0>         0.4220
@<TRIPOS>BOND
     1    1    2 1
     2    1   34 1
     3    1   35 1
     4    1   36 1
     5    2   11 1
     6    2    3 2
     7    3    4 1
     8    3   26 1
     9    4    9 ar
    10    4    5 ar
    11    5    6 ar
    12    5   37 1
    13    6    7 ar
    14    6   38 1
    15    7   15 1
    16    7    8 ar
    17    8    9 ar
    18    8   13 1
    19    9   10 1
    20   10   11 am
    21   10   12 2
    22   11   58 1
    23   13   14 1
    24   13   25 1
    25   14   15 2
    26   14   16 1
    27   16   17 1
    28   16   39 1
    29   17   22 ar
    30   17   18 ar
    31   18   19 ar
    32   18   24 1
    33   19   20 ar
    34   19   40 1
    35   20   21 ar
    36   20   41 1
    37   21   22 ar
    38   21   42 1
    39   22   23 1
    40   25   43 1
    41   25   44 1
    42   25   45 1
    43   26   27 1
    44   26   46 1
    45   26   47 1
    46   27   28 1
    47   27   48 1
    48   27   49 1
    49   28   33 1
    50   28   29 1
    51   28   59 1
    52   29   30 1
    53   29   50 1
    54   29   51 1
    55   30   31 1
    56   30   52 1
    57   30   53 1
    58   31   32 1
    59   32   33 1
    60   32   54 1
    61   32   55 1
    62   33   56 1
    63   33   57 1
@<TRIPOS>MOLECULE
CHEMBL189674
   55    59     0     0     0
SMALL
USER_CHARGES

@<TRIPOS>ATOM
      1 C1          2.6807   -0.2303    1.4001 C.3       1 <0>        -0.1135
      2 C2          1.5078   -0.8811    0.7133 C.ar      1 <0>        -0.0691
      3 C3          1.7020   -1.6122   -0.4427 C.ar      1 <0>        -0.1085
      4 C4          0.6269   -2.2099   -1.0739 C.ar      1 <0>        -0.0947
      5 C5         -0.6468   -2.0783   -0.5510 C.ar      1 <0>        -0.1111
      6 C6         -0.8484   -1.3489    0.6050 C.ar      1 <0>        -0.0097
      7 C7          0.2316   -0.7512    1.2448 C.ar      1 <0>         0.1446
      8 N1          0.0325   -0.0168    2.4178 N.pl3     1 <0>        -0.6391
      9 C8         -0.3567   -0.6600    3.5789 C.2       1 <0>         0.4989
     10 C9         -0.4545    0.0878    4.8313 C.2       1 <0>        -0.0690
     11 C10        -0.2383    1.3865    5.1830 C.2       1 <0>         0.0537
     12 N2         -0.4893    1.5009    6.4895 N.2       1 <0>        -0.4599
     13 C11        -0.8518    0.3393    6.9740 C.2       1 <0>         0.2104
     14 N3         -0.8460   -0.5711    5.9839 N.pl3     1 <0>        -0.3780
     15 C12        -1.1340   -1.9242    5.9107 C.ar      1 <0>         0.1364
     16 C13        -1.5317   -2.6376    7.0323 C.ar      1 <0>        -0.2210
     17 C14        -1.8085   -3.9923    6.9024 C.ar      1 <0>         0.3865
     18 N4         -1.6972   -4.6027    5.7306 N.ar      1 <0>        -0.5141
     19 C15        -1.3232   -3.9660    4.6397 C.ar      1 <0>         0.1961
     20 C16        -1.0261   -2.6015    4.6816 C.ar      1 <0>         0.0686
     21 N5         -0.6442   -1.9434    3.5553 N.2       1 <0>        -0.5304
     22 N6         -2.2085   -4.7204    8.0194 N.pl3     1 <0>        -0.6268
     23 C17        -2.2827   -6.1890    7.9782 C.3       1 <0>         0.1101
     24 C18        -3.6544   -6.6211    8.5069 C.3       1 <0>         0.0124
     25 H1         -4.4322   -6.2717    7.8278 H         1 <0>         0.1416
     26 N7         -3.8698   -6.0406    9.8383 N.4       1 <0>        -0.5031
     27 C19        -3.9268   -4.5765    9.7422 C.3       1 <0>         0.0130
     28 H2         -4.6963   -4.2889    9.0258 H         1 <0>         0.1419
     29 C20        -2.5631   -4.0434    9.2764 C.3       1 <0>         0.1079
     30 C21        -4.2615   -3.9878   11.1142 C.3       1 <0>        -0.1820
     31 C22        -3.7072   -8.1473    8.6010 C.3       1 <0>        -0.1805
     32 Cl1        -2.4472   -1.1841    1.2610 Cl        1 <0>        -0.0580
     33 H3          3.1091   -0.9243    2.1232 H         1 <0>         0.0741
     34 H4          3.4350    0.0338    0.6589 H         1 <0>         0.0761
     35 H5          2.3463    0.6704    1.9150 H         1 <0>         0.0662
     36 H6          2.6951   -1.7168   -0.8541 H         1 <0>         0.1354
     37 H7          0.7820   -2.7805   -1.9777 H         1 <0>         0.1372
     38 H8         -1.4845   -2.5459   -1.0470 H         1 <0>         0.1375
     39 H9          0.1672    0.9438    2.4173 H         1 <0>         0.4247
     40 H10         0.0793    2.1806    4.5235 H         1 <0>         0.1900
     41 H11        -1.1137    0.1438    8.0034 H         1 <0>         0.2172
     42 H12        -1.6240   -2.1477    7.9904 H         1 <0>         0.1399
     43 H13        -1.2455   -4.5029    3.7058 H         1 <0>         0.1825
     44 H14        -2.1610   -6.5332    6.9511 H         1 <0>         0.1400
     45 H15        -1.4983   -6.6131    8.6051 H         1 <0>         0.0883
     46 H16        -4.7388   -6.3856   10.2177 H         1 <0>         0.4290
     47 H17        -1.8066   -4.2545   10.0322 H         1 <0>         0.0957
     48 H18        -2.6269   -2.9684    9.1081 H         1 <0>         0.1241
     49 H19        -3.4917   -4.2752   11.8304 H         1 <0>         0.0855
     50 H20        -4.3037   -2.9010   11.0427 H         1 <0>         0.1094
     51 H21        -5.2274   -4.3679   11.4468 H         1 <0>         0.0883
     52 H22        -2.9296   -8.4966    9.2803 H         1 <0>         0.0840
     53 H23        -4.6831   -8.4546    8.9771 H         1 <0>         0.0862
     54 H24        -3.5467   -8.5781    7.6127 H         1 <0>         0.1111
     55 H25        -3.1105   -6.3072   10.4469 H         1 <0>         0.4243
@<TRIPOS>BOND
     1    1    2 1
     2    1   33 1
     3    1   34 1
     4    1   35 1
     5    2    7 ar
     6    2    3 ar
     7    3    4 ar
     8    3   36 1
     9    4    5 ar
    10    4   37 1
    11    5    6 ar
    12    5   38 1
    13    6    7 ar
    14    6   32 1
    15    7    8 1
    16    8    9 1
    17    8   39 1
    18    9   21 2
    19    9   10 1
    20   10   14 1
    21   10   11 2
    22   11   12 1
    23   11   40 1
    24   12   13 2
    25   13   14 1
    26   13   41 1
    27   14   15 1
    28   15   20 ar
    29   15   16 ar
    30   16   17 ar
    31   16   42 1
    32   17   18 ar
    33   17   22 1
    34   18   19 ar
    35   19   20 ar
    36   19   43 1
    37   20   21 1
    38   22   29 1
    39   22   23 1
    40   23   24 1
    41   23   44 1
    42   23   45 1
    43   24   25 1
    44   24   26 1
    45   24   31 1
    46   26   27 1
    47   26   46 1
    48   26   55 1
    49   27   28 1
    50   27   29 1
    51   27   30 1
    52   29   47 1
    53   29   48 1
    54   30   49 1
    55   30   50 1
    56   30   51 1
    57   31   52 1
    58   31   53 1
    59   31   54 1
@<TRIPOS>MOLECULE
CHEMBL516276
   40    43     0     0     0
SMALL
USER_CHARGES

@<TRIPOS>ATOM
      1 C1          3.0690   -2.5092    4.4361 C.3       1 <0>        -0.1120
      2 C2          2.8759   -2.3483    2.9503 C.ar      1 <0>        -0.0488
      3 C3          3.5028   -3.2130    2.0739 C.ar      1 <0>        -0.1098
      4 C4          3.3262   -3.0669    0.7105 C.ar      1 <0>        -0.0927
      5 C5          2.5216   -2.0551    0.2186 C.ar      1 <0>        -0.1125
      6 C6          1.8916   -1.1867    1.0892 C.ar      1 <0>        -0.0242
      7 C7          2.0632   -1.3345    2.4609 C.ar      1 <0>         0.1579
      8 N1          1.4226   -0.4610    3.3457 N.pl3     1 <0>        -0.6562
      9 C8          0.2750   -0.8602    3.9992 C.2       1 <0>         0.5606
     10 N2         -0.2385   -2.0636    3.9516 N.2       1 <0>        -0.5121
     11 C9         -1.3666   -2.1109    4.7085 C.ar      1 <0>         0.0834
     12 C10        -2.2835   -3.1237    5.0004 C.ar      1 <0>        -0.0798
     13 C11        -3.3560   -2.8593    5.8226 C.ar      1 <0>        -0.1130
     14 C12        -3.5331   -1.5945    6.3635 C.ar      1 <0>        -0.1141
     15 C13        -2.6364   -0.5834    6.0844 C.ar      1 <0>        -0.0863
     16 C14        -1.5510   -0.8321    5.2591 C.ar      1 <0>         0.0529
     17 N3         -0.4946   -0.0584    4.7998 N.pl3     1 <0>        -0.4598
     18 C15        -0.2623    1.2837    5.0948 C.ar      1 <0>         0.4249
     19 C16         0.0376    2.1865    4.0814 C.ar      1 <0>        -0.3044
     20 C17         0.2615    3.5166    4.4279 C.ar      1 <0>         0.4637
     21 N4          0.1808    3.8727    5.7082 N.ar      1 <0>        -0.5780
     22 C18        -0.1062    2.9860    6.6393 C.ar      1 <0>         0.3717
     23 N5         -0.3298    1.7202    6.3501 N.ar      1 <0>        -0.5634
     24 N6          0.5644    4.4556    3.4543 N.pl3     1 <0>        -0.8273
     25 Cl1         0.8819    0.0832    0.4714 Cl        1 <0>        -0.0636
     26 H1          2.3057   -3.1794    4.8313 H         1 <0>         0.0816
     27 H2          4.0564   -2.9280    4.6310 H         1 <0>         0.0716
     28 H3          2.9848   -1.5366    4.9209 H         1 <0>         0.0620
     29 H4          4.1320   -4.0040    2.4544 H         1 <0>         0.1351
     30 H5          3.8179   -3.7442    0.0279 H         1 <0>         0.1372
     31 H6          2.3860   -1.9435   -0.8470 H         1 <0>         0.1383
     32 H7          1.7852    0.4254    3.4998 H         1 <0>         0.4175
     33 H8         -2.1518   -4.1108    4.5823 H         1 <0>         0.1310
     34 H9         -4.0647   -3.6425    6.0477 H         1 <0>         0.1312
     35 H10        -4.3783   -1.3997    7.0070 H         1 <0>         0.1310
     36 H11        -2.7801    0.3996    6.5081 H         1 <0>         0.1221
     37 H12         0.0959    1.8647    3.0521 H         1 <0>         0.1469
     38 H13        -0.1642    3.3069    7.6689 H         1 <0>         0.2087
     39 H14         0.6217    4.1881    2.5237 H         1 <0>         0.4149
     40 H15         0.7190    5.3801    3.7037 H         1 <0>         0.4138
@<TRIPOS>BOND
     1    1    2 1
     2    1   26 1
     3    1   27 1
     4    1   28 1
     5    2    7 ar
     6    2    3 ar
     7    3    4 ar
     8    3   29 1
     9    4    5 ar
    10    4   30 1
    11    5    6 ar
    12    5   31 1
    13    6    7 ar
    14    6   25 1
    15    7    8 1
    16    8    9 1
    17    8   32 1
    18    9   17 1
    19    9   10 2
    20   10   11 1
    21   11   16 ar
    22   11   12 ar
    23   12   13 ar
    24   12   33 1
    25   13   14 ar
    26   13   34 1
    27   14   15 ar
    28   14   35 1
    29   15   16 ar
    30   15   36 1
    31   16   17 1
    32   17   18 1
    33   18   23 ar
    34   18   19 ar
    35   19   20 ar
    36   19   37 1
    37   20   21 ar
    38   20   24 1
    39   21   22 ar
    40   22   23 ar
    41   22   38 1
    42   24   39 1
    43   24   40 1
@<TRIPOS>MOLECULE
CHEMBL516276__1
   41    44     0     0     0
SMALL
USER_CHARGES

@<TRIPOS>ATOM
      1 C1         -1.3504   -1.8031    0.4420 C.3       1 <0>        -0.1248
      2 C2          0.0718   -1.3047    0.4414 C.ar      1 <0>        -0.0619
      3 C3          0.9615   -1.7541   -0.5153 C.ar      1 <0>        -0.1005
      4 C4          2.2665   -1.2974   -0.5174 C.ar      1 <0>        -0.0675
      5 C5          2.6863   -0.3893    0.4377 C.ar      1 <0>        -0.1008
      6 C6          1.8019    0.0645    1.3974 C.ar      1 <0>        -0.0223
      7 C7          0.4877   -0.3891    1.3987 C.ar      1 <0>         0.0891
      8 N1         -0.4121    0.0722    2.3650 N.pl3     1 <0>        -0.6583
      9 C8         -0.5638   -0.6164    3.5509 C.cat     1 <0>         0.6455
     10 N2         -0.7899   -1.9021    3.6511 N.pl3     1 <0>        -0.4977
     11 C9         -0.8857   -2.2498    4.9617 C.ar      1 <0>         0.0532
     12 C10        -1.1141   -3.4619    5.6178 C.ar      1 <0>        -0.0787
     13 C11        -1.1574   -3.4973    6.9937 C.ar      1 <0>        -0.0740
     14 C12        -0.9761   -2.3383    7.7336 C.ar      1 <0>        -0.0715
     15 C13        -0.7501   -1.1333    7.1004 C.ar      1 <0>        -0.0652
     16 C14        -0.7028   -1.0794    5.7162 C.ar      1 <0>         0.0915
     17 N3         -0.4946   -0.0584    4.7998 N.pl3     1 <0>        -0.3847
     18 C15        -0.2623    1.2837    5.0948 C.ar      1 <0>         0.4054
     19 C16         0.0376    2.1865    4.0814 C.ar      1 <0>        -0.3095
     20 C17         0.2615    3.5166    4.4279 C.ar      1 <0>         0.4764
     21 N4          0.1808    3.8727    5.7082 N.ar      1 <0>        -0.5635
     22 C18        -0.1062    2.9860    6.6393 C.ar      1 <0>         0.3921
     23 N5         -0.3298    1.7202    6.3501 N.ar      1 <0>        -0.5655
     24 N6          0.5644    4.4556    3.4543 N.pl3     1 <0>        -0.8156
     25 Cl1         2.3293    1.2042    2.5960 Cl        1 <0>        -0.0413
     26 H1         -1.9642   -1.1507   -0.1790 H         1 <0>         0.0968
     27 H2         -1.3801   -2.8173    0.0437 H         1 <0>         0.0914
     28 H3         -1.7354   -1.8017    1.4617 H         1 <0>         0.0496
     29 H4          0.6373   -2.4634   -1.2623 H         1 <0>         0.1490
     30 H5          2.9597   -1.6508   -1.2663 H         1 <0>         0.1510
     31 H6          3.7065   -0.0348    0.4334 H         1 <0>         0.1512
     32 H7         -0.9295    0.8762    2.2014 H         1 <0>         0.4455
     33 H8         -1.2565   -4.3681    5.0478 H         1 <0>         0.1544
     34 H9         -1.3343   -4.4345    7.5005 H         1 <0>         0.1586
     35 H10        -1.0124   -2.3792    8.8122 H         1 <0>         0.1587
     36 H11        -0.6103   -0.2341    7.6821 H         1 <0>         0.1666
     37 H12         0.0959    1.8647    3.0521 H         1 <0>         0.1590
     38 H13        -0.1642    3.3069    7.6689 H         1 <0>         0.2212
     39 H14         0.6217    4.1881    2.5237 H         1 <0>         0.4172
     40 H15         0.7190    5.3801    3.7037 H         1 <0>         0.4216
     41 H16        -0.8762   -2.5138    2.9033 H         1 <0>         0.4584
@<TRIPOS>BOND
     1    1    2 1
     2    1   26 1
     3    1   27 1
     4    1   28 1
     5    2    7 ar
     6    2    3 ar
     7    3    4 ar
     8    3   29 1
     9    4    5 ar
    10    4   30 1
    11    5    6 ar
    12    5   31 1
    13    6    7 ar
    14    6   25 1
    15    7    8 1
    16    8    9 1
    17    8   32 1
    18    9   17 1
    19    9   10 2
    20   10   11 1
    21   10   41 1
    22   11   16 ar
    23   11   12 ar
    24   12   13 ar
    25   12   33 1
    26   13   14 ar
    27   13   34 1
    28   14   15 ar
    29   14   35 1
    30   15   16 ar
    31   15   36 1
    32   16   17 1
    33   17   18 1
    34   18   23 ar
    35   18   19 ar
    36   19   20 ar
    37   19   37 1
    38   20   21 ar
    39   20   24 1
    40   21   22 ar
    41   22   23 ar
    42   22   38 1
    43   24   39 1
    44   24   40 1
@<TRIPOS>MOLECULE
CHEMBL186172
   58    62     0     0     0
SMALL
USER_CHARGES

@<TRIPOS>ATOM
      1 C1          2.5304   -1.2022    1.7792 C.3       1 <0>        -0.1133
      2 C2          1.3346   -1.3283    0.8708 C.ar      1 <0>        -0.0552
      3 C3          1.4342   -2.0413   -0.3083 C.ar      1 <0>        -0.1117
      4 C4          0.3380   -2.1578   -1.1427 C.ar      1 <0>        -0.0928
      5 C5         -0.8623   -1.5619   -0.8003 C.ar      1 <0>        -0.1135
      6 C6         -0.9692   -0.8474    0.3774 C.ar      1 <0>        -0.0179
      7 C7          0.1302   -0.7329    1.2209 C.ar      1 <0>         0.1477
      8 N1          0.0246   -0.0151    2.4163 N.pl3     1 <0>        -0.6417
      9 C8         -0.3646   -0.6569    3.5747 C.2       1 <0>         0.5234
     10 C9         -0.4740    0.0921    4.8243 C.2       1 <0>        -0.0942
     11 C10        -0.2682    1.4033    5.1780 C.2       1 <0>         0.0522
     12 N2         -0.5273    1.5120    6.4828 N.2       1 <0>        -0.4711
     13 C11        -0.8826    0.3459    6.9635 C.2       1 <0>         0.2021
     14 N3         -0.8652   -0.5652    5.9771 N.pl3     1 <0>        -0.3463
     15 C12        -1.1428   -1.9261    5.9073 C.ar      1 <0>        -0.0694
     16 C13        -1.5386   -2.6332    7.0287 C.ar      1 <0>         0.1843
     17 N4         -1.8002   -3.9250    6.9517 N.ar      1 <0>        -0.5265
     18 C14        -1.6986   -4.5994    5.8140 C.ar      1 <0>         0.4163
     19 C15        -1.3090   -3.9707    4.6429 C.ar      1 <0>        -0.2229
     20 C16        -1.0211   -2.6004    4.6770 C.ar      1 <0>         0.2368
     21 N5         -0.6432   -1.9448    3.5536 N.2       1 <0>        -0.5582
     22 N6         -1.9878   -5.9611    5.7967 N.pl3     1 <0>        -0.6067
     23 C17        -1.7746   -6.7398    4.5743 C.3       1 <0>         0.0910
     24 C18        -2.5053   -6.6153    7.0011 C.3       1 <0>         0.1315
     25 C19        -4.0339   -6.5513    6.9994 C.3       1 <0>         0.0432
     26 N7         -4.5528   -7.2073    8.2070 N.3       1 <0>        -0.5324
     27 C20        -4.2697   -8.6498    8.1860 C.3       1 <0>         0.0131
     28 C21        -4.7730   -9.2822    9.4862 C.3       1 <0>         0.0629
     29 O1         -6.1684   -9.0065    9.6356 O.3       1 <0>        -0.3854
     30 C22        -6.4800   -7.6109    9.6607 C.3       1 <0>         0.0635
     31 C23        -5.9939   -6.9616    8.3622 C.3       1 <0>         0.0194
     32 Cl1        -2.4757   -0.0991    0.8065 Cl        1 <0>        -0.0580
     33 H1          2.5370   -2.0300    2.4883 H         1 <0>         0.0745
     34 H2          3.4432   -1.2265    1.1838 H         1 <0>         0.0732
     35 H3          2.4761   -0.2588    2.3225 H         1 <0>         0.0674
     36 H4          2.3699   -2.5079   -0.5789 H         1 <0>         0.1339
     37 H5          0.4192   -2.7153   -2.0642 H         1 <0>         0.1361
     38 H6         -1.7167   -1.6549   -1.4544 H         1 <0>         0.1372
     39 H7          0.2249    0.9339    2.4314 H         1 <0>         0.4244
     40 H8          0.0461    2.2004    4.5206 H         1 <0>         0.1847
     41 H9         -1.1470    0.1483    7.9918 H         1 <0>         0.2174
     42 H10        -1.6341   -2.1238    7.9762 H         1 <0>         0.1633
     43 H11        -1.2283   -4.5269    3.7207 H         1 <0>         0.1478
     44 H12        -0.7611   -7.1407    4.5710 H         1 <0>         0.0578
     45 H13        -2.4903   -7.5611    4.5372 H         1 <0>         0.0724
     46 H14        -1.9139   -6.0970    3.7051 H         1 <0>         0.0744
     47 H15        -2.1852   -7.6572    7.0146 H         1 <0>         0.0728
     48 H16        -2.1213   -6.1057    7.8848 H         1 <0>         0.0992
     49 H17        -4.3540   -5.5095    6.9859 H         1 <0>         0.0788
     50 H18        -4.4179   -7.0609    6.1156 H         1 <0>         0.0332
     51 H19        -4.7780   -9.1082    7.3377 H         1 <0>         0.0432
     52 H20        -3.1950   -8.8085    8.0962 H         1 <0>         0.0878
     53 H21        -4.6168  -10.3604    9.4508 H         1 <0>         0.0987
     54 H22        -4.2266   -8.8621   10.3306 H         1 <0>         0.0615
     55 H23        -7.5583   -7.4803    9.7515 H         1 <0>         0.0990
     56 H24        -5.9832   -7.1422   10.5101 H         1 <0>         0.0617
     57 H25        -6.1779   -5.8879    8.4011 H         1 <0>         0.0867
     58 H26        -6.5299   -7.3929    7.5167 H         1 <0>         0.0426
@<TRIPOS>BOND
     1    1    2 1
     2    1   33 1
     3    1   34 1
     4    1   35 1
     5    2    7 ar
     6    2    3 ar
     7    3    4 ar
     8    3   36 1
     9    4    5 ar
    10    4   37 1
    11    5    6 ar
    12    5   38 1
    13    6    7 ar
    14    6   32 1
    15    7    8 1
    16    8    9 1
    17    8   39 1
    18    9   21 2
    19    9   10 1
    20   10   14 1
    21   10   11 2
    22   11   12 1
    23   11   40 1
    24   12   13 2
    25   13   14 1
    26   13   41 1
    27   14   15 1
    28   15   20 ar
    29   15   16 ar
    30   16   17 ar
    31   16   42 1
    32   17   18 ar
    33   18   19 ar
    34   18   22 1
    35   19   20 ar
    36   19   43 1
    37   20   21 1
    38   22   23 1
    39   22   24 1
    40   23   44 1
    41   23   45 1
    42   23   46 1
    43   24   25 1
    44   24   47 1
    45   24   48 1
    46   25   26 1
    47   25   49 1
    48   25   50 1
    49   26   31 1
    50   26   27 1
    51   27   28 1
    52   27   51 1
    53   27   52 1
    54   28   29 1
    55   28   53 1
    56   28   54 1
    57   29   30 1
    58   30   31 1
    59   30   55 1
    60   30   56 1
    61   31   57 1
    62   31   58 1
@<TRIPOS>MOLECULE
CHEMBL186172__1
   59    63     0     0     0
SMALL
USER_CHARGES

@<TRIPOS>ATOM
      1 C1          2.5304   -1.2022    1.7792 C.3       1 <0>        -0.1144
      2 C2          1.3346   -1.3283    0.8708 C.ar      1 <0>        -0.0536
      3 C3          1.4342   -2.0413   -0.3083 C.ar      1 <0>        -0.1104
      4 C4          0.3380   -2.1578   -1.1427 C.ar      1 <0>        -0.0894
      5 C5         -0.8623   -1.5619   -0.8003 C.ar      1 <0>        -0.1126
      6 C6         -0.9692   -0.8474    0.3774 C.ar      1 <0>        -0.0173
      7 C7          0.1302   -0.7329    1.2209 C.ar      1 <0>         0.1398
      8 N1          0.0246   -0.0151    2.4163 N.pl3     1 <0>        -0.6334
      9 C8         -0.3646   -0.6569    3.5747 C.2       1 <0>         0.5355
     10 C9         -0.4740    0.0921    4.8243 C.2       1 <0>        -0.0981
     11 C10        -0.2682    1.4033    5.1780 C.2       1 <0>         0.0648
     12 N2         -0.5273    1.5120    6.4828 N.2       1 <0>        -0.4660
     13 C11        -0.8826    0.3459    6.9635 C.2       1 <0>         0.2097
     14 N3         -0.8652   -0.5652    5.9771 N.pl3     1 <0>        -0.3564
     15 C12        -1.1428   -1.9261    5.9073 C.ar      1 <0>        -0.0515
     16 C13        -1.5386   -2.6332    7.0287 C.ar      1 <0>         0.1783
     17 N4         -1.8002   -3.9250    6.9517 N.ar      1 <0>        -0.5431
     18 C14        -1.6986   -4.5994    5.8140 C.ar      1 <0>         0.3979
     19 C15        -1.3090   -3.9707    4.6429 C.ar      1 <0>        -0.2106
     20 C16        -1.0211   -2.6004    4.6770 C.ar      1 <0>         0.2440
     21 N5         -0.6432   -1.9448    3.5536 N.2       1 <0>        -0.5655
     22 N6         -1.9878   -5.9611    5.7967 N.pl3     1 <0>        -0.6069
     23 C17        -1.7746   -6.7398    4.5743 C.3       1 <0>         0.0868
     24 C18        -2.5053   -6.6153    7.0011 C.3       1 <0>         0.1106
     25 C19        -4.0339   -6.5513    6.9994 C.3       1 <0>        -0.0307
     26 N7         -4.5528   -7.2073    8.2070 N.4       1 <0>        -0.3814
     27 C20        -4.2246   -8.6390    8.1663 C.3       1 <0>        -0.0488
     28 C21        -4.7661   -9.3202    9.4257 C.3       1 <0>         0.0363
     29 O1         -6.1781   -9.1070    9.5070 O.3       1 <0>        -0.3565
     30 C22        -6.5498   -7.7260    9.5253 C.3       1 <0>         0.0364
     31 C23        -6.0117   -7.0418    8.2661 C.3       1 <0>        -0.0421
     32 Cl1        -2.4757   -0.0991    0.8065 Cl        1 <0>        -0.0581
     33 H1          2.5370   -2.0300    2.4883 H         1 <0>         0.0736
     34 H2          3.4432   -1.2265    1.1838 H         1 <0>         0.0761
     35 H3          2.4761   -0.2588    2.3225 H         1 <0>         0.0672
     36 H4          2.3699   -2.5079   -0.5789 H         1 <0>         0.1360
     37 H5          0.4192   -2.7153   -2.0642 H         1 <0>         0.1383
     38 H6         -1.7167   -1.6549   -1.4544 H         1 <0>         0.1389
     39 H7          0.2249    0.9339    2.4314 H         1 <0>         0.4271
     40 H8          0.0461    2.2004    4.5206 H         1 <0>         0.1890
     41 H9         -1.1470    0.1483    7.9918 H         1 <0>         0.2192
     42 H10        -1.6341   -2.1238    7.9762 H         1 <0>         0.1664
     43 H11        -1.2283   -4.5269    3.7207 H         1 <0>         0.1511
     44 H12        -0.7611   -7.1407    4.5710 H         1 <0>         0.0655
     45 H13        -2.4903   -7.5611    4.5372 H         1 <0>         0.0743
     46 H14        -1.9139   -6.0970    3.7051 H         1 <0>         0.0834
     47 H15        -2.1852   -7.6572    7.0146 H         1 <0>         0.0940
     48 H16        -2.1213   -6.1057    7.8848 H         1 <0>         0.1084
     49 H17        -4.3540   -5.5095    6.9859 H         1 <0>         0.1331
     50 H18        -4.4179   -7.0609    6.1156 H         1 <0>         0.1289
     51 H19        -4.6786   -9.0912    7.2846 H         1 <0>         0.1394
     52 H20        -3.1426   -8.7629    8.1226 H         1 <0>         0.1426
     53 H21        -4.5616  -10.3898    9.3775 H         1 <0>         0.1422
     54 H22        -4.2826   -8.8957   10.3056 H         1 <0>         0.0822
     55 H23        -7.6363   -7.6417    9.5492 H         1 <0>         0.1422
     56 H24        -6.1274   -7.2470   10.4085 H         1 <0>         0.0821
     57 H25        -6.2562   -5.9801    8.2964 H         1 <0>         0.1420
     58 H26        -6.4650   -7.4946    7.3843 H         1 <0>         0.1381
     59 H27        -4.1334   -6.7890    9.0238 H         1 <0>         0.4248
@<TRIPOS>BOND
     1    1    2 1
     2    1   33 1
     3    1   34 1
     4    1   35 1
     5    2    7 ar
     6    2    3 ar
     7    3    4 ar
     8    3   36 1
     9    4    5 ar
    10    4   37 1
    11    5    6 ar
    12    5   38 1
    13    6    7 ar
    14    6   32 1
    15    7    8 1
    16    8    9 1
    17    8   39 1
    18    9   21 2
    19    9   10 1
    20   10   14 1
    21   10   11 2
    22   11   12 1
    23   11   40 1
    24   12   13 2
    25   13   14 1
    26   13   41 1
    27   14   15 1
    28   15   20 ar
    29   15   16 ar
    30   16   17 ar
    31   16   42 1
    32   17   18 ar
    33   18   19 ar
    34   18   22 1
    35   19   20 ar
    36   19   43 1
    37   20   21 1
    38   22   23 1
    39   22   24 1
    40   23   44 1
    41   23   45 1
    42   23   46 1
    43   24   25 1
    44   24   47 1
    45   24   48 1
    46   25   26 1
    47   25   49 1
    48   25   50 1
    49   26   31 1
    50   26   27 1
    51   26   59 1
    52   27   28 1
    53   27   51 1
    54   27   52 1
    55   28   29 1
    56   28   53 1
    57   28   54 1
    58   29   30 1
    59   30   31 1
    60   30   55 1
    61   30   56 1
    62   31   57 1
    63   31   58 1
@<TRIPOS>MOLECULE
CHEMBL443240
   40    43     0     0     0
SMALL
USER_CHARGES

@<TRIPOS>ATOM
      1 C1          2.1099    1.4772   -0.2055 C.ar      1 <0>        -0.1043
      2 C2          1.1696    2.1047    0.5865 C.ar      1 <0>        -0.1062
      3 C3          0.2293    1.3472    1.2867 C.ar      1 <0>        -0.1211
      4 C4          0.2441   -0.0437    1.1828 C.ar      1 <0>        -0.0535
      5 C5          1.1925   -0.6645    0.3848 C.ar      1 <0>         0.1611
      6 C6          2.1246    0.0991   -0.3085 C.ar      1 <0>        -0.1221
      7 N1          1.2120   -2.0587    0.2776 N.pl3     1 <0>        -0.6363
      8 C7          0.0269   -2.7739    0.3302 C.ar      1 <0>         0.5902
      9 N2         -1.1230   -2.1167    0.3710 N.ar      1 <0>        -0.5804
     10 C8         -2.2768   -2.7657    0.4215 C.ar      1 <0>         0.2198
     11 C9         -2.2754   -4.1472    0.4314 C.ar      1 <0>        -0.3200
     12 C10        -1.0484   -4.8123    0.3875 C.ar      1 <0>         0.4627
     13 N3          0.0712   -4.0975    0.3329 N.ar      1 <0>        -0.5993
     14 N4         -0.9986   -6.1977    0.3955 N.pl3     1 <0>        -0.6352
     15 C11         0.2302   -6.8509    0.4883 C.ar      1 <0>         0.2118
     16 C12         1.3230   -6.1972    0.9826 C.ar      1 <0>        -0.1381
     17 C13         2.5636   -6.8231    1.0874 C.ar      1 <0>        -0.0662
     18 C14         2.7497   -8.1137    0.7039 C.ar      1 <0>        -0.0972
     19 C15         1.6678   -8.8483    0.1854 C.ar      1 <0>         0.0536
     20 C16         0.3552   -8.1958    0.0777 C.ar      1 <0>         0.0070
     21 N5         -0.4421   -9.1224   -0.4262 N.2       1 <0>        -0.2700
     22 H1         -0.1398  -11.0173   -0.9737 H         1 <0>         0.4732
     23 N6          0.2370  -10.2006   -0.6106 N.pl3     1 <0>        -0.1980
     24 N7          1.4732  -10.0742   -0.2731 N.2       1 <0>        -0.2742
     25 C17        -0.7788    2.0169    2.1362 C.2       1 <0>         0.5641
     26 O1         -1.5967    1.3553    2.7451 O.2       1 <0>        -0.5350
     27 N8         -0.7907    3.3610    2.2353 N.am      1 <0>        -0.8515
     28 H2          2.8337    2.0654   -0.7500 H         1 <0>         0.1340
     29 H3          1.1616    3.1819    0.6646 H         1 <0>         0.1267
     30 H4         -0.4807   -0.6351    1.7226 H         1 <0>         0.1517
     31 H5          2.8628   -0.3863   -0.9298 H         1 <0>         0.1310
     32 H6          2.0553   -2.5249    0.1664 H         1 <0>         0.4254
     33 H7         -3.2086   -2.2206    0.4548 H         1 <0>         0.1735
     34 H8         -3.2022   -4.7001    0.4724 H         1 <0>         0.1463
     35 H9         -1.8184   -6.7128    0.3366 H         1 <0>         0.4270
     36 H10         1.2231   -5.1696    1.2997 H         1 <0>         0.1690
     37 H11         3.4004   -6.2672    1.4840 H         1 <0>         0.1375
     38 H12         3.7229   -8.5726    0.7965 H         1 <0>         0.1367
     39 H13        -0.1380    3.8890    1.7493 H         1 <0>         0.4010
     40 H14        -1.4521    3.8003    2.7925 H         1 <0>         0.4058
@<TRIPOS>BOND
     1    1    6 ar
     2    1    2 ar
     3    1   28 1
     4    2    3 ar
     5    2   29 1
     6    3    4 ar
     7    3   25 1
     8    4    5 ar
     9    4   30 1
    10    5    6 ar
    11    5    7 1
    12    6   31 1
    13    7    8 1
    14    7   32 1
    15    8   13 ar
    16    8    9 ar
    17    9   10 ar
    18   10   11 ar
    19   10   33 1
    20   11   12 ar
    21   11   34 1
    22   12   13 ar
    23   12   14 1
    24   14   15 1
    25   14   35 1
    26   15   20 ar
    27   15   16 ar
    28   16   17 ar
    29   16   36 1
    30   17   18 ar
    31   17   37 1
    32   18   19 ar
    33   18   38 1
    34   19   20 ar
    35   19   24 2
    36   20   21 2
    37   21   23 1
    38   22   23 1
    39   23   24 1
    40   25   26 2
    41   25   27 am
    42   27   39 1
    43   27   40 1
@<TRIPOS>MOLECULE
CHEMBL443240__1
   40    43     0     0     0
SMALL
USER_CHARGES

@<TRIPOS>ATOM
      1 C1          2.1041    1.4858   -0.1107 C.ar      1 <0>        -0.1043
      2 C2          1.1608    2.1044    0.6849 C.ar      1 <0>        -0.1057
      3 C3          0.2197    1.3389    1.3751 C.ar      1 <0>        -0.1209
      4 C4          0.2365   -0.0510    1.2577 C.ar      1 <0>        -0.0533
      5 C5          1.1879   -0.6627    0.4562 C.ar      1 <0>         0.1605
      6 C6          2.1209    0.1088   -0.2271 C.ar      1 <0>        -0.1218
      7 N1          1.2091   -2.0557    0.3350 N.pl3     1 <0>        -0.6364
      8 C7          0.0244   -2.7724    0.3733 C.ar      1 <0>         0.5896
      9 N2         -1.1263   -2.1165    0.4144 N.ar      1 <0>        -0.5786
     10 C8         -2.2798   -2.7669    0.4518 C.ar      1 <0>         0.2202
     11 C9         -2.2773   -4.1484    0.4478 C.ar      1 <0>        -0.3164
     12 C10        -1.0495   -4.8121    0.4041 C.ar      1 <0>         0.4609
     13 N3          0.0698   -4.0959    0.3626 N.ar      1 <0>        -0.5987
     14 N4         -0.9986   -6.1975    0.3989 N.pl3     1 <0>        -0.6334
     15 C11         0.2312   -6.8510    0.4922 C.ar      1 <0>         0.2486
     16 C12         1.3344   -6.1863    0.9918 C.ar      1 <0>        -0.1684
     17 C13         2.5603   -6.8288    1.0883 C.ar      1 <0>        -0.0330
     18 C14         2.6968   -8.1392    0.6871 C.ar      1 <0>        -0.1607
     19 C15         1.5998   -8.8291    0.1808 C.ar      1 <0>         0.1197
     20 C16         0.3519   -8.1919    0.0833 C.ar      1 <0>        -0.0512
     21 N5         -0.5233   -9.0802   -0.4266 N.2       1 <0>        -0.2134
     22 H1          2.0824  -10.8059   -0.3547 H         1 <0>         0.4494
     23 N6          0.0601  -10.2049   -0.6489 N.2       1 <0>        -0.0061
     24 N7          1.4131  -10.1067   -0.2915 N.pl3     1 <0>        -0.4999
     25 C17        -0.7915    1.9990    2.2284 C.2       1 <0>         0.5640
     26 O1         -1.6102    1.3304    2.8286 O.2       1 <0>        -0.5349
     27 N8         -0.8055    3.3420    2.3406 N.am      1 <0>        -0.8514
     28 H2          2.8286    2.0802   -0.6475 H         1 <0>         0.1341
     29 H3          1.1512    3.1807    0.7735 H         1 <0>         0.1269
     30 H4         -0.4890   -0.6485    1.7897 H         1 <0>         0.1514
     31 H5          2.8614   -0.3695   -0.8510 H         1 <0>         0.1309
     32 H6          2.0535   -2.5201    0.2242 H         1 <0>         0.4251
     33 H7         -3.2122   -2.2229    0.4854 H         1 <0>         0.1747
     34 H8         -3.2039   -4.7024    0.4781 H         1 <0>         0.1483
     35 H9         -1.8177   -6.7126    0.3304 H         1 <0>         0.4308
     36 H10         1.2419   -5.1582    1.3094 H         1 <0>         0.1721
     37 H11         3.4145   -6.2970    1.4807 H         1 <0>         0.1410
     38 H12         3.6551   -8.6310    0.7653 H         1 <0>         0.1334
     39 H13        -0.1522    3.8755    1.8616 H         1 <0>         0.4009
     40 H14        -1.4688    3.7750    2.9003 H         1 <0>         0.4059
@<TRIPOS>BOND
     1    1    6 ar
     2    1    2 ar
     3    1   28 1
     4    2    3 ar
     5    2   29 1
     6    3    4 ar
     7    3   25 1
     8    4    5 ar
     9    4   30 1
    10    5    6 ar
    11    5    7 1
    12    6   31 1
    13    7    8 1
    14    7   32 1
    15    8   13 ar
    16    8    9 ar
    17    9   10 ar
    18   10   11 ar
    19   10   33 1
    20   11   12 ar
    21   11   34 1
    22   12   13 ar
    23   12   14 1
    24   14   15 1
    25   14   35 1
    26   15   20 ar
    27   15   16 ar
    28   16   17 ar
    29   16   36 1
    30   17   18 ar
    31   17   37 1
    32   18   19 ar
    33   18   38 1
    34   19   20 ar
    35   19   24 1
    36   20   21 1
    37   21   23 2
    38   22   24 1
    39   23   24 1
    40   25   26 2
    41   25   27 am
    42   27   39 1
    43   27   40 1
@<TRIPOS>MOLECULE
CHEMBL443240__2
   40    43     0     0     0
SMALL
USER_CHARGES

@<TRIPOS>ATOM
      1 C1          2.0992    1.4918   -0.0367 C.ar      1 <0>        -0.1041
      2 C2          1.1547    2.1028    0.7632 C.ar      1 <0>        -0.1048
      3 C3          0.2135    1.3308    1.4459 C.ar      1 <0>        -0.1210
      4 C4          0.2314   -0.0580    1.3166 C.ar      1 <0>        -0.0530
      5 C5          1.1841   -0.6621    0.5109 C.ar      1 <0>         0.1590
      6 C6          2.1172    0.1158   -0.1648 C.ar      1 <0>        -0.1207
      7 N1          1.2067   -2.0541    0.3782 N.pl3     1 <0>        -0.6357
      8 C7          0.0223   -2.7718    0.4056 C.ar      1 <0>         0.5917
      9 N2         -1.1289   -2.1171    0.4477 N.ar      1 <0>        -0.5784
     10 C8         -2.2822   -2.7684    0.4749 C.ar      1 <0>         0.2218
     11 C9         -2.2789   -4.1498    0.4590 C.ar      1 <0>        -0.3218
     12 C10        -1.0504   -4.8124    0.4145 C.ar      1 <0>         0.4638
     13 N3          0.0686   -4.0952    0.3836 N.ar      1 <0>        -0.5995
     14 N4         -0.9986   -6.1974    0.3971 N.pl3     1 <0>        -0.6464
     15 C11         0.2334   -6.8523    0.4901 C.ar      1 <0>         0.1764
     16 C12         1.3398   -6.1885    0.9907 C.ar      1 <0>        -0.1125
     17 C13         2.5650   -6.8341    1.0850 C.ar      1 <0>        -0.0898
     18 C14         2.7027   -8.1331    0.6871 C.ar      1 <0>        -0.0762
     19 C15         1.6010   -8.8272    0.1782 C.ar      1 <0>         0.0340
     20 C16         0.3553   -8.1816    0.0844 C.ar      1 <0>        -0.0019
     21 N5         -0.5003   -9.1199   -0.4377 N.pl3     1 <0>        -0.4182
     22 H1         -1.4417   -8.9872   -0.6304 H         1 <0>         0.4489
     23 N6          0.1644  -10.2069   -0.6280 N.2       1 <0>        -0.0111
     24 N7          1.3988  -10.0758   -0.2891 N.2       1 <0>        -0.2476
     25 C17        -0.7991    1.9828    2.3037 C.2       1 <0>         0.5641
     26 O1         -1.6179    1.3085    2.8974 O.2       1 <0>        -0.5354
     27 N8         -0.8142    3.3248    2.4274 N.am      1 <0>        -0.8511
     28 H2          2.8238    2.0912   -0.5676 H         1 <0>         0.1346
     29 H3          1.1443    3.1783    0.8610 H         1 <0>         0.1273
     30 H4         -0.4942   -0.6606    1.8427 H         1 <0>         0.1508
     31 H5          2.8587   -0.3566   -0.7921 H         1 <0>         0.1314
     32 H6          2.0519   -2.5170    0.2670 H         1 <0>         0.4257
     33 H7         -3.2151   -2.2253    0.5095 H         1 <0>         0.1744
     34 H8         -3.2052   -4.7046    0.4808 H         1 <0>         0.1459
     35 H9         -1.8170   -6.7124    0.3204 H         1 <0>         0.4193
     36 H10         1.2495   -5.1607    1.3098 H         1 <0>         0.1726
     37 H11         3.4194   -6.3027    1.4775 H         1 <0>         0.1405
     38 H12         3.6617   -8.6237    0.7652 H         1 <0>         0.1400
     39 H13        -0.1608    3.8629    1.9537 H         1 <0>         0.4011
     40 H14        -1.4784    3.7526    2.9902 H         1 <0>         0.4061
@<TRIPOS>BOND
     1    1    6 ar
     2    1    2 ar
     3    1   28 1
     4    2    3 ar
     5    2   29 1
     6    3    4 ar
     7    3   25 1
     8    4    5 ar
     9    4   30 1
    10    5    6 ar
    11    5    7 1
    12    6   31 1
    13    7    8 1
    14    7   32 1
    15    8   13 ar
    16    8    9 ar
    17    9   10 ar
    18   10   11 ar
    19   10   33 1
    20   11   12 ar
    21   11   34 1
    22   12   13 ar
    23   12   14 1
    24   14   15 1
    25   14   35 1
    26   15   20 ar
    27   15   16 ar
    28   16   17 ar
    29   16   36 1
    30   17   18 ar
    31   17   37 1
    32   18   19 ar
    33   18   38 1
    34   19   24 1
    35   19   20 ar
    36   20   21 1
    37   21   22 1
    38   21   23 1
    39   23   24 2
    40   25   26 2
    41   25   27 am
    42   27   39 1
    43   27   40 1
@<TRIPOS>MOLECULE
CHEMBL250543
   43    46     0     0     0
SMALL
USER_CHARGES

@<TRIPOS>ATOM
      1 C1          2.1055    1.4850   -0.1167 C.ar      1 <0>        -0.1040
      2 C2          1.1622    2.1041    0.6783 C.ar      1 <0>        -0.1055
      3 C3          0.2205    1.3391    1.3684 C.ar      1 <0>        -0.1211
      4 C4          0.2369   -0.0508    1.2514 C.ar      1 <0>        -0.0533
      5 C5          1.1884   -0.6630    0.4504 C.ar      1 <0>         0.1601
      6 C6          2.1218    0.1079   -0.2328 C.ar      1 <0>        -0.1216
      7 N1          1.2095   -2.0561    0.3300 N.pl3     1 <0>        -0.6363
      8 C7          0.0247   -2.7727    0.3691 C.ar      1 <0>         0.5903
      9 N2         -1.1259   -2.1168    0.4101 N.ar      1 <0>        -0.5791
     10 C8         -2.2795   -2.7670    0.4479 C.ar      1 <0>         0.2204
     11 C9         -2.2770   -4.1486    0.4444 C.ar      1 <0>        -0.3212
     12 C10        -1.0493   -4.8123    0.4007 C.ar      1 <0>         0.4618
     13 N3          0.0700   -4.0963    0.3592 N.ar      1 <0>        -0.5983
     14 N4         -0.9985   -6.1979    0.3960 N.pl3     1 <0>        -0.6396
     15 C11         0.2291   -6.8503    0.4887 C.ar      1 <0>         0.1767
     16 C12         1.3331   -6.1900    0.9875 C.ar      1 <0>        -0.1437
     17 C13         2.5612   -6.8354    1.0832 C.ar      1 <0>        -0.0719
     18 C14         2.7095   -8.1309    0.6896 C.ar      1 <0>        -0.1216
     19 C15         1.6112   -8.8406    0.1758 C.ar      1 <0>         0.1467
     20 C16         0.3542   -8.1943    0.0790 C.ar      1 <0>        -0.1222
     21 C17        -0.7434   -8.9087   -0.4303 C.ar      1 <0>        -0.0606
     22 C18        -0.5488  -10.2079   -0.8079 C.ar      1 <0>        -0.1759
     23 C19         0.7115  -10.7863   -0.6822 C.ar      1 <0>         0.1340
     24 N5          1.7360  -10.1131   -0.2166 N.ar      1 <0>        -0.4719
     25 C20        -0.7908    1.9998    2.2211 C.2       1 <0>         0.5642
     26 O1         -1.6099    1.3316    2.8213 O.2       1 <0>        -0.5353
     27 N6         -0.8043    3.3428    2.3330 N.am      1 <0>        -0.8512
     28 H1          2.8304    2.0790   -0.6534 H         1 <0>         0.1344
     29 H2          1.1529    3.1804    0.7667 H         1 <0>         0.1271
     30 H3         -0.4890   -0.6480    1.7833 H         1 <0>         0.1511
     31 H4          2.8623   -0.3708   -0.8564 H         1 <0>         0.1310
     32 H5          2.0538   -2.5206    0.2190 H         1 <0>         0.4253
     33 H6         -3.2118   -2.2229    0.4815 H         1 <0>         0.1741
     34 H7         -3.2036   -4.7026    0.4750 H         1 <0>         0.1462
     35 H8         -1.8176   -6.7130    0.3282 H         1 <0>         0.4219
     36 H9          1.2427   -5.1621    1.3063 H         1 <0>         0.1637
     37 H10         3.4127   -6.2998    1.4763 H         1 <0>         0.1322
     38 H11         3.6724   -8.6129    0.7723 H         1 <0>         0.1351
     39 H12        -1.7142   -8.4441   -0.5205 H         1 <0>         0.1305
     40 H13        -1.3717  -10.7852   -1.2030 H         1 <0>         0.1392
     41 H14         0.8510  -11.8138   -0.9840 H         1 <0>         0.1611
     42 H15        -0.1507    3.8760    1.8541 H         1 <0>         0.4010
     43 H16        -1.4677    3.7762    2.8924 H         1 <0>         0.4060
@<TRIPOS>BOND
     1    1    6 ar
     2    1    2 ar
     3    1   28 1
     4    2    3 ar
     5    2   29 1
     6    3    4 ar
     7    3   25 1
     8    4    5 ar
     9    4   30 1
    10    5    6 ar
    11    5    7 1
    12    6   31 1
    13    7    8 1
    14    7   32 1
    15    8   13 ar
    16    8    9 ar
    17    9   10 ar
    18   10   11 ar
    19   10   33 1
    20   11   12 ar
    21   11   34 1
    22   12   13 ar
    23   12   14 1
    24   14   15 1
    25   14   35 1
    26   15   20 ar
    27   15   16 ar
    28   16   17 ar
    29   16   36 1
    30   17   18 ar
    31   17   37 1
    32   18   19 ar
    33   18   38 1
    34   19   24 ar
    35   19   20 ar
    36   20   21 ar
    37   21   22 ar
    38   21   39 1
    39   22   23 ar
    40   22   40 1
    41   23   24 ar
    42   23   41 1
    43   25   26 2
    44   25   27 am
    45   27   42 1
    46   27   43 1
@<TRIPOS>MOLECULE
CHEMBL458333
   82    86     0     0     0
SMALL
USER_CHARGES

@<TRIPOS>ATOM
      1 C1          2.6697   -0.4403    1.0532 C.3       1 <0>        -0.1102
      2 C2          1.3865   -0.9866    0.4821 C.ar      1 <0>        -0.0799
      3 C3          1.4105   -1.7405   -0.6746 C.ar      1 <0>        -0.1196
      4 C4          0.2334   -2.2418   -1.1997 C.ar      1 <0>        -0.1062
      5 C5         -0.9713   -1.9902   -0.5690 C.ar      1 <0>        -0.1190
      6 C6         -1.0026   -1.2374    0.5884 C.ar      1 <0>        -0.0669
      7 C7          0.1787   -0.7371    1.1218 C.ar      1 <0>         0.1363
      8 N1          0.1514    0.0203    2.2953 N.pl3     1 <0>        -0.6496
      9 C8         -0.1406   -0.5929    3.5155 C.2       1 <0>         0.3918
     10 C9         -0.1001    0.0397    4.8329 C.ar      1 <0>        -0.3329
     11 C10         0.2044    1.3176    5.3050 C.ar      1 <0>         0.2753
     12 N2          0.1356    1.5450    6.6040 N.ar      1 <0>        -0.5811
     13 C11        -0.2151    0.5845    7.4534 C.ar      1 <0>         0.6005
     14 N3         -0.5123   -0.6401    7.0543 N.ar      1 <0>        -0.5794
     15 C12        -0.4689   -0.9569    5.7631 C.ar      1 <0>         0.4072
     16 N4         -0.7090   -2.0918    5.0486 N.pl3     1 <0>        -0.3716
     17 N5         -0.5058   -1.8364    3.6884 N.2       1 <0>        -0.2905
     18 C13        -1.1209   -3.3781    5.6161 C.3       1 <0>         0.1452
     19 C14        -2.6484   -3.4446    5.6732 C.3       1 <0>        -0.1169
     20 C15        -3.0786   -4.7880    6.2659 C.3       1 <0>         0.1160
     21 C16        -4.6029   -4.9061    6.2083 C.3       1 <0>        -0.1782
     22 C17        -2.4480   -5.9260    5.4608 C.3       1 <0>        -0.1857
     23 O1         -2.6456   -4.8694    7.6253 O.3       1 <0>        -0.3786
     24 C18        -2.9986   -6.0919    8.2755 C.3       1 <0>         0.0241
     25 N6         -0.2707    0.8775    8.8056 N.pl3     1 <0>        -0.6356
     26 C19        -0.0769    2.1927    9.2456 C.ar      1 <0>         0.1558
     27 C20        -0.5145    3.2569    8.4683 C.ar      1 <0>        -0.0730
     28 C21        -0.3234    4.5536    8.9032 C.ar      1 <0>        -0.1182
     29 C22         0.3058    4.7931   10.1160 C.ar      1 <0>         0.0902
     30 C23         0.7436    3.7306   10.8928 C.ar      1 <0>        -0.1783
     31 C24         0.5478    2.4332   10.4623 C.ar      1 <0>        -0.1106
     32 O2          0.4940    6.0703   10.5433 O.3       1 <0>        -0.3289
     33 C25         1.1489    6.2436   11.8015 C.3       1 <0>         0.0276
     34 C26         1.2698    7.7369   12.1121 C.3       1 <0>         0.0037
     35 N7         -0.0710    8.3102   12.2897 N.4       1 <0>        -0.3954
     36 C27        -0.6917    7.7857   13.5330 C.3       1 <0>        -0.0102
     37 C28        -1.7676    8.8492   13.8680 C.3       1 <0>        -0.1449
     38 C29        -1.0770   10.1753   13.4749 C.3       1 <0>        -0.1451
     39 C30         0.0208    9.7751   12.4718 C.3       1 <0>        -0.0086
     40 C31        -2.3159   -0.9634    1.2748 C.3       1 <0>        -0.1097
     41 H1          3.0964   -1.1652    1.7466 H         1 <0>         0.0695
     42 H2          3.3759   -0.2516    0.2447 H         1 <0>         0.0687
     43 H3          2.4648    0.4908    1.5815 H         1 <0>         0.0635
     44 H4          2.3495   -1.9386   -1.1700 H         1 <0>         0.1258
     45 H5          0.2550   -2.8308   -2.1047 H         1 <0>         0.1255
     46 H6         -1.8887   -2.3826   -0.9821 H         1 <0>         0.1250
     47 H7          0.3353    0.9722    2.2626 H         1 <0>         0.4196
     48 H8          0.4907    2.1038    4.6221 H         1 <0>         0.1737
     49 H9         -0.7451   -4.1880    4.9910 H         1 <0>         0.0978
     50 H10        -0.7150   -3.4777    6.6228 H         1 <0>         0.1031
     51 H11        -3.0243   -2.6346    6.2983 H         1 <0>         0.0757
     52 H12        -3.0543   -3.3450    4.6665 H         1 <0>         0.0847
     53 H13        -4.9332   -4.8440    5.1714 H         1 <0>         0.0689
     54 H14        -4.9094   -5.8631    6.6305 H         1 <0>         0.0645
     55 H15        -5.0522   -4.0954    6.7819 H         1 <0>         0.0644
     56 H16        -1.3621   -5.8418    5.5018 H         1 <0>         0.0672
     57 H17        -2.7545   -6.8830    5.8830 H         1 <0>         0.0646
     58 H18        -2.7783   -5.8639    4.4239 H         1 <0>         0.0714
     59 H19        -2.6345   -6.0754    9.3028 H         1 <0>         0.0856
     60 H20        -4.0829   -6.2031    8.2761 H         1 <0>         0.0450
     61 H21        -2.5478   -6.9297    7.7436 H         1 <0>         0.0457
     62 H22        -0.4440    0.1717    9.4480 H         1 <0>         0.4266
     63 H23        -1.0038    3.0705    7.5237 H         1 <0>         0.1473
     64 H24        -0.6637    5.3814    8.2987 H         1 <0>         0.1347
     65 H25         1.2341    3.9180   11.8366 H         1 <0>         0.1293
     66 H26         0.8844    1.6059   11.0695 H         1 <0>         0.1332
     67 H27         0.5677    5.7556   12.5839 H         1 <0>         0.0840
     68 H28         2.1436    5.7999   11.7575 H         1 <0>         0.1072
     69 H29         1.8469    7.8721   13.0269 H         1 <0>         0.1474
     70 H30         1.7738    8.2400   11.2869 H         1 <0>         0.1410
     71 H31        -1.1535    6.8150   13.3525 H         1 <0>         0.1338
     72 H32         0.0458    7.7194   14.3328 H         1 <0>         0.1345
     73 H33        -2.6658    8.6904   13.2713 H         1 <0>         0.0983
     74 H34        -2.0031    8.8376   14.9322 H         1 <0>         0.1169
     75 H35        -1.7925   10.8492   13.0037 H         1 <0>         0.1053
     76 H36        -0.6341   10.6459   14.3526 H         1 <0>         0.1040
     77 H37         1.0009   10.0392   12.8690 H         1 <0>         0.1311
     78 H38        -0.1449   10.2788   11.5195 H         1 <0>         0.1328
     79 H39        -2.5646   -1.7983    1.9299 H         1 <0>         0.0733
     80 H40        -2.2339   -0.0506    1.8648 H         1 <0>         0.0612
     81 H41        -3.0990   -0.8431    0.5262 H         1 <0>         0.0656
     82 H42        -0.6505    8.0943   11.4925 H         1 <0>         0.4340
@<TRIPOS>BOND
     1    1    2 1
     2    1   41 1
     3    1   42 1
     4    1   43 1
     5    2    7 ar
     6    2    3 ar
     7    3    4 ar
     8    3   44 1
     9    4    5 ar
    10    4   45 1
    11    5    6 ar
    12    5   46 1
    13    6    7 ar
    14    6   40 1
    15    7    8 1
    16    8    9 1
    17    8   47 1
    18    9   17 2
    19    9   10 1
    20   10   15 ar
    21   10   11 ar
    22   11   12 ar
    23   11   48 1
    24   12   13 ar
    25   13   14 ar
    26   13   25 1
    27   14   15 ar
    28   15   16 1
    29   16   17 1
    30   16   18 1
    31   18   19 1
    32   18   49 1
    33   18   50 1
    34   19   20 1
    35   19   51 1
    36   19   52 1
    37   20   21 1
    38   20   22 1
    39   20   23 1
    40   21   53 1
    41   21   54 1
    42   21   55 1
    43   22   56 1
    44   22   57 1
    45   22   58 1
    46   23   24 1
    47   24   59 1
    48   24   60 1
    49   24   61 1
    50   25   26 1
    51   25   62 1
    52   26   31 ar
    53   26   27 ar
    54   27   28 ar
    55   27   63 1
    56   28   29 ar
    57   28   64 1
    58   29   30 ar
    59   29   32 1
    60   30   31 ar
    61   30   65 1
    62   31   66 1
    63   32   33 1
    64   33   34 1
    65   33   67 1
    66   33   68 1
    67   34   35 1
    68   34   69 1
    69   34   70 1
    70   35   39 1
    71   35   36 1
    72   35   82 1
    73   36   37 1
    74   36   71 1
    75   36   72 1
    76   37   38 1
    77   37   73 1
    78   37   74 1
    79   38   39 1
    80   38   75 1
    81   38   76 1
    82   39   77 1
    83   39   78 1
    84   40   79 1
    85   40   80 1
    86   40   81 1
@<TRIPOS>MOLECULE
CHEMBL68871
   65    68     0     0     0
SMALL
USER_CHARGES

@<TRIPOS>ATOM
      1 C1         -1.0244    2.6298    0.0563 C.3       1 <0>        -0.1165
      2 C2         -0.3646    1.2912   -0.1530 C.ar      1 <0>        -0.0846
      3 C3         -0.3641    0.7089   -1.4059 C.ar      1 <0>        -0.1049
      4 C4          0.2413   -0.5189   -1.5995 C.ar      1 <0>        -0.1047
      5 C5          0.8485   -1.1688   -0.5404 C.ar      1 <0>        -0.1061
      6 C6          0.8517   -0.5923    0.7154 C.ar      1 <0>        -0.0238
      7 C7          0.2483    0.6446    0.9117 C.ar      1 <0>         0.1417
      8 N1          0.2541    1.2341    2.1805 N.am      1 <0>        -0.6699
      9 C8         -0.1757    0.5357    3.2500 C.2       1 <0>         0.5578
     10 O1         -0.4734   -0.6374    3.1305 O.2       1 <0>        -0.4923
     11 C9         -0.2852    1.1939    4.5650 C.ar      1 <0>        -0.1157
     12 C10         0.0497    2.5473    4.7134 C.ar      1 <0>        -0.0730
     13 C11        -0.0435    3.1720    5.9128 C.ar      1 <0>        -0.0688
     14 C12        -0.4853    2.4776    7.0666 C.ar      1 <0>         0.1302
     15 C13        -0.8180    1.1120    6.8912 C.ar      1 <0>        -0.1633
     16 C14        -0.7301    0.4790    5.6820 C.ar      1 <0>         0.0104
     17 S1         -1.3079    0.6286    8.5294 S.3       1 <0>         0.0455
     18 C15        -1.0498    2.2125    9.3164 C.2       1 <0>         0.3824
     19 N2         -0.6290    2.9563    8.3176 N.2       1 <0>        -0.5070
     20 N3         -1.2441    2.5658   10.6397 N.am      1 <0>        -0.6212
     21 C16        -0.9903    3.8259   11.0450 C.2       1 <0>         0.7038
     22 O2         -0.5905    4.6519   10.2477 O.2       1 <0>        -0.5161
     23 N4         -1.1796    4.1701   12.3342 N.am      1 <0>        -0.7365
     24 C17        -0.9030    5.5430   12.7758 C.3       1 <0>         0.1592
     25 C18         0.5757    5.6622   13.1494 C.3       1 <0>        -0.1460
     26 C19         0.8771    7.0837   13.6232 C.3       1 <0>         0.0604
     27 N5         -0.0064    7.5010   14.7017 N.4       1 <0>        -0.4917
     28 C20        -1.4298    7.2481   14.5452 C.3       1 <0>         0.0633
     29 C21        -1.7380    5.8506   14.0183 C.3       1 <0>        -0.1417
     30 C22        -2.0786    7.3636   15.9452 C.3       1 <0>        -0.1803
     31 C23        -2.0974    8.3002   13.6558 C.3       1 <0>        -0.1765
     32 C24         0.8416    8.0531   12.4423 C.3       1 <0>        -0.1716
     33 C25         2.3214    7.0863   14.1751 C.3       1 <0>        -0.1797
     34 Cl1         1.6134   -1.4086    2.0447 Cl        1 <0>        -0.0457
     35 H1         -0.2981    3.4239   -0.1167 H         1 <0>         0.0759
     36 H2         -1.8548    2.7386   -0.6414 H         1 <0>         0.0758
     37 H3         -1.3976    2.6951    1.0783 H         1 <0>         0.0671
     38 H4         -0.8376    1.2134   -2.2352 H         1 <0>         0.1347
     39 H5          0.2397   -0.9717   -2.5800 H         1 <0>         0.1363
     40 H6          1.3202   -2.1280   -0.6949 H         1 <0>         0.1377
     41 H7          0.5675    2.1455    2.2904 H         1 <0>         0.4108
     42 H8          0.3898    3.1045    3.8529 H         1 <0>         0.1379
     43 H9          0.2235    4.2156    5.9904 H         1 <0>         0.1419
     44 H10        -0.9980   -0.5633    5.5913 H         1 <0>         0.1510
     45 H11        -1.5631    1.9067   11.2759 H         1 <0>         0.4289
     46 H12        -1.4986    3.5110   12.9704 H         1 <0>         0.4050
     47 H13        -1.1506    6.2296   11.9713 H         1 <0>         0.1113
     48 H14         0.8075    4.9553   13.9476 H         1 <0>         0.0927
     49 H15         1.1901    5.4320   12.2773 H         1 <0>         0.1161
     50 H16         0.3072    7.0510   15.5654 H         1 <0>         0.4248
     51 H17        -2.7995    5.7824   13.7665 H         1 <0>         0.1179
     52 H18        -1.5161    5.1129   14.7940 H         1 <0>         0.0971
     53 H19        -1.9108    8.3648   16.3420 H         1 <0>         0.0854
     54 H20        -3.1499    7.1792   15.8655 H         1 <0>         0.1074
     55 H21        -1.6321    6.6280   16.6144 H         1 <0>         0.0822
     56 H22        -1.7161    8.2110   12.6386 H         1 <0>         0.0840
     57 H23        -3.1761    8.1434   13.6545 H         1 <0>         0.1059
     58 H24        -1.8754    9.2954   14.0410 H         1 <0>         0.0842
     59 H25        -0.1117    7.9578   11.9224 H         1 <0>         0.0839
     60 H26         0.9562    9.0740   12.8067 H         1 <0>         0.0815
     61 H27         1.6549    7.8190   11.7555 H         1 <0>         0.1064
     62 H28         3.0126    6.7910   13.3857 H         1 <0>         0.1069
     63 H29         2.5751    8.0871   14.5245 H         1 <0>         0.0842
     64 H30         2.3948    6.3825   15.0042 H         1 <0>         0.0812
     65 H31         0.1279    8.5031   14.8575 H         1 <0>         0.4271
@<TRIPOS>BOND
     1    1    2 1
     2    1   35 1
     3    1   36 1
     4    1   37 1
     5    2    7 ar
     6    2    3 ar
     7    3    4 ar
     8    3   38 1
     9    4    5 ar
    10    4   39 1
    11    5    6 ar
    12    5   40 1
    13    6    7 ar
    14    6   34 1
    15    7    8 1
    16    8    9 am
    17    8   41 1
    18    9   10 2
    19    9   11 1
    20   11   16 ar
    21   11   12 ar
    22   12   13 ar
    23   12   42 1
    24   13   14 ar
    25   13   43 1
    26   14   19 1
    27   14   15 ar
    28   15   16 ar
    29   15   17 1
    30   16   44 1
    31   17   18 1
    32   18   19 2
    33   18   20 1
    34   20   21 am
    35   20   45 1
    36   21   22 2
    37   21   23 am
    38   23   24 1
    39   23   46 1
    40   24   29 1
    41   24   25 1
    42   24   47 1
    43   25   26 1
    44   25   48 1
    45   25   49 1
    46   26   27 1
    47   26   32 1
    48   26   33 1
    49   27   28 1
    50   27   50 1
    51   27   65 1
    52   28   29 1
    53   28   30 1
    54   28   31 1
    55   29   51 1
    56   29   52 1
    57   30   53 1
    58   30   54 1
    59   30   55 1
    60   31   56 1
    61   31   57 1
    62   31   58 1
    63   32   59 1
    64   32   60 1
    65   32   61 1
    66   33   62 1
    67   33   63 1
    68   33   64 1
@<TRIPOS>MOLECULE
CHEMBL231720
   53    57     0     0     0
SMALL
USER_CHARGES

@<TRIPOS>ATOM
      1 C1          1.3834   -3.3089    1.7463 C.3       1 <0>         0.0742
      2 N1          0.5255   -2.4586    0.9172 N.pl3     1 <0>        -0.4487
      3 C2          0.2600   -2.6494   -0.4183 C.ar      1 <0>         0.1125
      4 C3          0.6667   -3.6074   -1.3430 C.ar      1 <0>        -0.1306
      5 C4          0.2226   -3.5347   -2.6441 C.ar      1 <0>        -0.0847
      6 C5         -0.6288   -2.5128   -3.0458 C.ar      1 <0>        -0.1469
      7 C6         -1.0411   -1.5624   -2.1578 C.ar      1 <0>        -0.0611
      8 C7         -0.6035   -1.6147   -0.8279 C.ar      1 <0>        -0.1188
      9 C8         -0.8428   -0.8029    0.3071 C.2       1 <0>        -0.1331
     10 C9         -0.1545   -1.3368    1.3502 C.2       1 <0>         0.0152
     11 C10        -0.1338   -0.8033    2.7201 C.2       1 <0>         0.5883
     12 O1          0.5892   -1.3079    3.5585 O.2       1 <0>        -0.5203
     13 N2         -0.9158    0.2445    3.0470 N.am      1 <0>        -0.6468
     14 C11        -0.8615    0.7822    4.3377 C.ar      1 <0>         0.1340
     15 C12        -0.5300   -0.0302    5.4140 C.ar      1 <0>        -0.0862
     16 C13        -0.4755    0.4966    6.6876 C.ar      1 <0>        -0.1222
     17 C14        -0.7534    1.8470    6.8969 C.ar      1 <0>         0.0006
     18 C15        -1.0864    2.6643    5.8174 C.ar      1 <0>        -0.1550
     19 C16        -1.1346    2.1343    4.5410 C.ar      1 <0>         0.1105
     20 O2         -1.4532    2.9301    3.4855 O.3       1 <0>        -0.3148
     21 C17        -1.7209    4.3052    3.7673 C.3       1 <0>         0.0258
     22 C18        -0.6954    2.4129    8.2656 C.2       1 <0>         0.1700
     23 C19         0.3655    2.1951    9.2489 C.ar      1 <0>        -0.3238
     24 C20         1.5666    1.4670    9.2695 C.ar      1 <0>         0.5203
     25 N3          2.3054    1.4996   10.3741 N.ar      1 <0>        -0.6046
     26 C21         1.9245    2.1977   11.4294 C.ar      1 <0>         0.3877
     27 N4          0.8094    2.8937   11.4558 N.ar      1 <0>        -0.5743
     28 C22         0.0009    2.9237   10.3963 C.ar      1 <0>         0.3749
     29 N5         -1.1877    3.5307   10.1189 N.pl3     1 <0>        -0.3804
     30 N6         -1.5832    3.2064    8.8169 N.2       1 <0>        -0.2348
     31 C23        -1.9330    4.3923   11.0399 C.3       1 <0>         0.1085
     32 N7          1.9697    0.7349    8.1694 N.pl3     1 <0>        -0.8260
     33 H1          0.7686   -4.0303    2.2846 H         1 <0>         0.0738
     34 H2          2.0929   -3.8387    1.1107 H         1 <0>         0.0824
     35 H3          1.9269   -2.6902    2.4604 H         1 <0>         0.0998
     36 H4          1.3289   -4.4052   -1.0406 H         1 <0>         0.1225
     37 H5          0.5394   -4.2790   -3.3596 H         1 <0>         0.1288
     38 H6         -0.9672   -2.4702   -4.0705 H         1 <0>         0.1258
     39 H7         -1.7027   -0.7717   -2.4794 H         1 <0>         0.1263
     40 H8         -1.4645    0.0796    0.3393 H         1 <0>         0.1529
     41 H9         -1.5163    0.6260    2.3876 H         1 <0>         0.4202
     42 H10        -0.3149   -1.0763    5.2537 H         1 <0>         0.1625
     43 H11        -0.2179   -0.1373    7.5232 H         1 <0>         0.1381
     44 H12        -1.3020    3.7104    5.9771 H         1 <0>         0.1412
     45 H13        -2.5643    4.3779    4.4540 H         1 <0>         0.0602
     46 H14        -0.8415    4.7607    4.2226 H         1 <0>         0.0582
     47 H15        -1.9611    4.8260    2.8404 H         1 <0>         0.1055
     48 H16         2.5549    2.1962   12.3063 H         1 <0>         0.2059
     49 H17        -1.6148    5.4265   10.9079 H         1 <0>         0.0750
     50 H18        -2.9996    4.3109   10.8309 H         1 <0>         0.0910
     51 H19        -1.7391    4.0808   12.0663 H         1 <0>         0.0945
     52 H20         1.5629    0.8964    7.3038 H         1 <0>         0.4147
     53 H21         2.6596    0.0594    8.2626 H         1 <0>         0.4117
@<TRIPOS>BOND
     1    1    2 1
     2    1   33 1
     3    1   34 1
     4    1   35 1
     5    2   10 1
     6    2    3 1
     7    3    8 ar
     8    3    4 ar
     9    4    5 ar
    10    4   36 1
    11    5    6 ar
    12    5   37 1
    13    6    7 ar
    14    6   38 1
    15    7    8 ar
    16    7   39 1
    17    8    9 1
    18    9   10 2
    19    9   40 1
    20   10   11 1
    21   11   12 2
    22   11   13 am
    23   13   14 1
    24   13   41 1
    25   14   19 ar
    26   14   15 ar
    27   15   16 ar
    28   15   42 1
    29   16   17 ar
    30   16   43 1
    31   17   18 ar
    32   17   22 1
    33   18   19 ar
    34   18   44 1
    35   19   20 1
    36   20   21 1
    37   21   45 1
    38   21   46 1
    39   21   47 1
    40   22   30 2
    41   22   23 1
    42   23   28 ar
    43   23   24 ar
    44   24   25 ar
    45   24   32 1
    46   25   26 ar
    47   26   27 ar
    48   26   48 1
    49   27   28 ar
    50   28   29 1
    51   29   30 1
    52   29   31 1
    53   31   49 1
    54   31   50 1
    55   31   51 1
    56   32   52 1
    57   32   53 1
@<TRIPOS>MOLECULE
CHEMBL185784
   41    45     0     0     0
SMALL
USER_CHARGES

@<TRIPOS>ATOM
      1 C1          2.5237   -1.2120    1.7691 C.3       1 <0>        -0.1136
      2 C2          1.3243   -1.3318    0.8646 C.ar      1 <0>        -0.0551
      3 C3          1.4167   -2.0437   -0.3157 C.ar      1 <0>        -0.1114
      4 C4          0.3172   -2.1545   -1.1465 C.ar      1 <0>        -0.0916
      5 C5         -0.8792   -1.5534   -0.7996 C.ar      1 <0>        -0.1129
      6 C6         -0.9791   -0.8401    0.3796 C.ar      1 <0>        -0.0183
      7 C7          0.1236   -0.7315    1.2195 C.ar      1 <0>         0.1458
      8 N1          0.0251   -0.0151    2.4162 N.pl3     1 <0>        -0.6410
      9 C8         -0.3648   -0.6580    3.5768 C.2       1 <0>         0.5102
     10 C9         -0.4745    0.0891    4.8279 C.2       1 <0>        -0.0814
     11 C10        -0.2694    1.3991    5.1838 C.2       1 <0>         0.0594
     12 N2         -0.5296    1.5061    6.4893 N.2       1 <0>        -0.4677
     13 C11        -0.8848    0.3401    6.9684 C.2       1 <0>         0.2344
     14 N3         -0.8664   -0.5706    5.9785 N.pl3     1 <0>        -0.3664
     15 C12        -1.1452   -1.9279    5.9120 C.ar      1 <0>         0.2888
     16 C13        -1.0245   -2.6002    4.6847 C.ar      1 <0>         0.1083
     17 N4         -0.6439   -1.9438    3.5581 N.2       1 <0>        -0.5430
     18 C14        -1.3098   -3.9727    4.6323 C.ar      1 <0>        -0.0193
     19 C15        -1.6989   -4.6078    5.7944 C.ar      1 <0>        -0.1570
     20 C16        -1.7962   -3.8757    6.9737 C.ar      1 <0>         0.3631
     21 N5         -1.5227   -2.5826    6.9993 N.ar      1 <0>        -0.4937
     22 N6         -2.1902   -4.5185    8.1514 N.pl3     1 <0>        -0.4109
     23 C17        -2.4307   -3.9240    9.3638 C.2       1 <0>        -0.0286
     24 C18        -2.7841   -4.9048   10.2157 C.2       1 <0>        -0.0239
     25 N7         -2.7619   -6.0681    9.5482 N.2       1 <0>        -0.4735
     26 C19        -2.4131   -5.8498    8.3097 C.2       1 <0>         0.1959
     27 Cl1        -2.4807   -0.0854    0.8144 Cl        1 <0>        -0.0578
     28 H1          2.5290   -2.0407    2.4771 H         1 <0>         0.0743
     29 H2          3.4343   -1.2396    1.1706 H         1 <0>         0.0737
     30 H3          2.4753   -0.2691    2.3137 H         1 <0>         0.0674
     31 H4          2.3494   -2.5142   -0.5900 H         1 <0>         0.1344
     32 H5          0.3927   -2.7114   -2.0688 H         1 <0>         0.1367
     33 H6         -1.7360   -1.6412   -1.4512 H         1 <0>         0.1378
     34 H7          0.2302    0.9328    2.4323 H         1 <0>         0.4252
     35 H8          0.0453    2.1973    4.5279 H         1 <0>         0.1911
     36 H9         -1.1507    0.1411    7.9960 H         1 <0>         0.2208
     37 H10        -1.2273   -4.5194    3.7045 H         1 <0>         0.1666
     38 H11        -1.9261   -5.6636    5.7884 H         1 <0>         0.1586
     39 H12        -2.3515   -2.8712    9.5915 H         1 <0>         0.1811
     40 H13        -3.0406   -4.7771   11.2570 H         1 <0>         0.1787
     41 H14        -2.3156   -6.6014    7.5403 H         1 <0>         0.2145
@<TRIPOS>BOND
     1    1    2 1
     2    1   28 1
     3    1   29 1
     4    1   30 1
     5    2    7 ar
     6    2    3 ar
     7    3    4 ar
     8    3   31 1
     9    4    5 ar
    10    4   32 1
    11    5    6 ar
    12    5   33 1
    13    6    7 ar
    14    6   27 1
    15    7    8 1
    16    8    9 1
    17    8   34 1
    18    9   17 2
    19    9   10 1
    20   10   14 1
    21   10   11 2
    22   11   12 1
    23   11   35 1
    24   12   13 2
    25   13   14 1
    26   13   36 1
    27   14   15 1
    28   15   21 ar
    29   15   16 ar
    30   16   17 1
    31   16   18 ar
    32   18   19 ar
    33   18   37 1
    34   19   20 ar
    35   19   38 1
    36   20   21 ar
    37   20   22 1
    38   22   26 1
    39   22   23 1
    40   23   24 2
    41   23   39 1
    42   24   25 1
    43   24   40 1
    44   25   26 2
    45   26   41 1
@<TRIPOS>MOLECULE
CHEMBL212181
   58    62     0     0     0
SMALL
USER_CHARGES

@<TRIPOS>ATOM
      1 C1          0.0307    1.5035    0.0088 C.3       1 <0>        -0.1270
      2 C2          0.0391   -0.0035    0.0008 C.ar      1 <0>        -0.0380
      3 C3          0.0395   -0.6862   -1.2002 C.ar      1 <0>        -0.1228
      4 C4          0.0472   -2.0662   -1.2163 C.ar      1 <0>        -0.0787
      5 C5          0.0541   -2.7807   -0.0161 C.ar      1 <0>        -0.1439
      6 C6          0.0537   -2.0964    1.1980 C.ar      1 <0>        -0.0377
      7 C7          0.0522   -0.7052    1.2058 C.ar      1 <0>        -0.0519
      8 C8          0.0583    0.0307    2.4941 C.ar      1 <0>        -0.0763
      9 C9          0.9846    1.0651    2.7005 C.ar      1 <0>        -0.0508
     10 C10         1.0120    1.7560    3.8710 C.ar      1 <0>        -0.1201
     11 C11         0.1046    1.4370    4.8935 C.ar      1 <0>         0.2183
     12 C12        -0.8360    0.3928    4.6947 C.ar      1 <0>        -0.2141
     13 C13        -0.8526   -0.3044    3.4800 C.ar      1 <0>        -0.0355
     14 C14        -1.7347    0.0941    5.7365 C.ar      1 <0>         0.2450
     15 N1         -1.6631    0.7960    6.8481 N.ar      1 <0>        -0.5579
     16 C15        -0.7674    1.7695    7.0006 C.ar      1 <0>         0.5759
     17 N2          0.0987    2.0934    6.0602 N.ar      1 <0>        -0.5739
     18 N3         -0.7445    2.4692    8.1934 N.pl3     1 <0>        -0.6661
     19 C16        -1.6935    2.1336    9.2578 C.3       1 <0>         0.0937
     20 C17        -1.1539    2.0587   10.6876 C.3       1 <0>        -0.1947
     21 C18        -2.0419    3.2310   10.2655 C.3       1 <0>        -0.1902
     22 C19         0.0613   -4.2589   -0.0337 C.2       1 <0>         0.5636
     23 O1          0.0673   -4.8792    1.0117 O.2       1 <0>        -0.5104
     24 N4          0.0613   -4.9189   -1.2088 N.am      1 <0>        -0.6648
     25 C20         0.1847   -6.3117   -1.2285 C.ar      1 <0>         0.1480
     26 C21         0.8044   -6.9706   -0.1742 C.ar      1 <0>        -0.0949
     27 C22         0.9243   -8.3461   -0.1966 C.ar      1 <0>        -0.1031
     28 C23         0.4282   -9.0677   -1.2671 C.ar      1 <0>        -0.0855
     29 C24        -0.1891   -8.4150   -2.3181 C.ar      1 <0>        -0.1663
     30 C25        -0.3170   -7.0397   -2.2994 C.ar      1 <0>        -0.0649
     31 C26        -0.9951   -6.3296   -3.4427 C.3       1 <0>        -0.1390
     32 C27        -0.7282   -9.2053   -3.4825 C.3       1 <0>         0.5116
     33 F1         -0.4873  -10.5674   -3.2730 F         1 <0>        -0.1747
     34 F2         -2.1055   -8.9875   -3.5962 F         1 <0>        -0.1744
     35 F3         -0.0924   -8.7948   -4.6590 F         1 <0>        -0.1748
     36 H1          1.0563    1.8726    0.0029 H         1 <0>         0.0796
     37 H2         -0.4919    1.8686   -0.8754 H         1 <0>         0.0728
     38 H3         -0.4783    1.8593    0.9045 H         1 <0>         0.0758
     39 H4          0.0335   -0.1376   -2.1305 H         1 <0>         0.1349
     40 H5          0.0475   -2.5945   -2.1583 H         1 <0>         0.1263
     41 H6          0.0591   -2.6439    2.1290 H         1 <0>         0.1409
     42 H7          1.6859    1.3155    1.9182 H         1 <0>         0.1344
     43 H8          1.7312    2.5489    4.0142 H         1 <0>         0.1399
     44 H9         -1.5668   -1.0978    3.3160 H         1 <0>         0.1368
     45 H10        -2.4664   -0.6926    5.6263 H         1 <0>         0.1796
     46 H11        -0.1001    3.1822    8.3252 H         1 <0>         0.4157
     47 H12        -2.4836    1.4358    8.9805 H         1 <0>         0.1440
     48 H13        -1.5889    1.3113   11.3511 H         1 <0>         0.1044
     49 H14        -0.0929    2.2591   10.8362 H         1 <0>         0.0967
     50 H15        -1.5650    4.2026   10.1364 H         1 <0>         0.0974
     51 H16        -3.0610    3.2548   10.6514 H         1 <0>         0.1059
     52 H17        -0.0244   -4.4277   -2.0409 H         1 <0>         0.4129
     53 H18         1.1923   -6.4077    0.6618 H         1 <0>         0.1555
     54 H19         1.4063   -8.8589    0.6226 H         1 <0>         0.1402
     55 H20         0.5235  -10.1434   -1.2823 H         1 <0>         0.1407
     56 H21        -0.2551   -6.0719   -4.2004 H         1 <0>         0.0847
     57 H22        -1.7501   -6.9831   -3.8797 H         1 <0>         0.0836
     58 H23        -1.4704   -5.4203   -3.0749 H         1 <0>         0.0737
@<TRIPOS>BOND
     1    1    2 1
     2    1   36 1
     3    1   37 1
     4    1   38 1
     5    2    7 ar
     6    2    3 ar
     7    3    4 ar
     8    3   39 1
     9    4    5 ar
    10    4   40 1
    11    5    6 ar
    12    5   22 1
    13    6    7 ar
    14    6   41 1
    15    7    8 1
    16    8   13 ar
    17    8    9 ar
    18    9   10 ar
    19    9   42 1
    20   10   11 ar
    21   10   43 1
    22   11   17 ar
    23   11   12 ar
    24   12   13 ar
    25   12   14 ar
    26   13   44 1
    27   14   15 ar
    28   14   45 1
    29   15   16 ar
    30   16   17 ar
    31   16   18 1
    32   18   19 1
    33   18   46 1
    34   19   21 1
    35   19   20 1
    36   19   47 1
    37   20   21 1
    38   20   48 1
    39   20   49 1
    40   21   50 1
    41   21   51 1
    42   22   23 2
    43   22   24 am
    44   24   25 1
    45   24   52 1
    46   25   30 ar
    47   25   26 ar
    48   26   27 ar
    49   26   53 1
    50   27   28 ar
    51   27   54 1
    52   28   29 ar
    53   28   55 1
    54   29   30 ar
    55   29   32 1
    56   30   31 1
    57   31   56 1
    58   31   57 1
    59   31   58 1
    60   32   33 1
    61   32   34 1
    62   32   35 1
@<TRIPOS>MOLECULE
CHEMBL585921
   54    59     0     0     0
SMALL
USER_CHARGES

@<TRIPOS>ATOM
      1 C1         -0.8746   -5.5227    1.4206 C.3       1 <0>        -0.1059
      2 C2          0.4222   -5.7288    2.1601 C.ar      1 <0>        -0.1410
      3 C3          1.1999   -6.8493    1.8859 C.ar      1 <0>        -0.0780
      4 C4          2.3781   -7.0660    2.5365 C.ar      1 <0>        -0.1334
      5 C5          2.8214   -6.1497    3.4997 C.ar      1 <0>        -0.1018
      6 C6          2.0382   -5.0049    3.7877 C.ar      1 <0>         0.0329
      7 C7          0.8278   -4.8011    3.0978 C.ar      1 <0>         0.2437
      8 N1          0.0449   -3.6771    3.3630 N.pl3     1 <0>        -0.6771
      9 C8          0.5988   -2.5836    4.0116 C.ar      1 <0>         0.4118
     10 C9          1.6432   -1.8683    3.4053 C.ar      1 <0>        -0.1180
     11 C10         2.1856   -0.7704    4.0762 C.ar      1 <0>        -0.0459
     12 C11         1.6667   -0.4340    5.3160 C.ar      1 <0>        -0.1801
     13 C12         0.6372   -1.1865    5.8492 C.ar      1 <0>         0.1383
     14 N2          0.1357   -2.2173    5.1961 N.ar      1 <0>        -0.4998
     15 C13         2.1609   -2.2711    2.0785 C.ar      1 <0>         0.2609
     16 C14         2.3533   -1.3240    1.0679 C.ar      1 <0>        -0.0586
     17 C15         2.8476   -1.7580   -0.1758 C.ar      1 <0>         0.2981
     18 N3          2.9393   -0.6674   -0.9602 N.2       1 <0>        -0.4861
     19 H1          1.8421    0.6324    1.6432 H         1 <0>         0.4295
     20 C16         2.5442    0.3850   -0.2995 C.2       1 <0>         0.3080
     21 N4          2.1730    0.0358    0.9537 N.pl3     1 <0>        -0.5794
     22 N5          3.1131   -3.0561   -0.3417 N.ar      1 <0>        -0.4766
     23 C17         2.9163   -3.9111    0.6381 C.ar      1 <0>         0.3063
     24 N6          2.4599   -3.5446    1.8205 N.ar      1 <0>        -0.4759
     25 C18         2.5078   -4.1015    4.7589 C.ar      1 <0>        -0.2163
     26 C19         3.6905   -4.3613    5.3810 C.ar      1 <0>         0.1175
     27 N7          4.4107   -5.4386    5.0979 N.ar      1 <0>        -0.5381
     28 C20         4.0350   -6.3298    4.2003 C.ar      1 <0>         0.4172
     29 N8          4.8275   -7.4377    3.9459 N.pl3     1 <0>        -0.6535
     30 C21         5.9661   -7.6758    4.7216 C.ar      1 <0>         0.1735
     31 C22         5.9775   -7.3267    6.0660 C.ar      1 <0>        -0.1044
     32 C23         7.1036   -7.5629    6.8298 C.ar      1 <0>        -0.0894
     33 C24         8.2198   -8.1469    6.2570 C.ar      1 <0>        -0.0575
     34 C25         8.2113   -8.4954    4.9177 C.ar      1 <0>        -0.0880
     35 C26         7.0858   -8.2671    4.1506 C.ar      1 <0>        -0.1437
     36 Cl1         9.6335   -8.4425    7.2202 Cl        1 <0>        -0.0748
     37 H2         -0.6915   -4.9304    0.5241 H         1 <0>         0.0647
     38 H3         -1.2896   -6.4903    1.1383 H         1 <0>         0.0714
     39 H4         -1.5808   -4.9985    2.0645 H         1 <0>         0.0555
     40 H5          0.8643   -7.5599    1.1450 H         1 <0>         0.1257
     41 H6          2.9682   -7.9418    2.3105 H         1 <0>         0.1199
     42 H7         -0.8869   -3.6605    3.0937 H         1 <0>         0.4163
     43 H8          2.9903   -0.1976    3.6395 H         1 <0>         0.1374
     44 H9          2.0638    0.4092    5.8616 H         1 <0>         0.1489
     45 H10         0.2336   -0.9237    6.8159 H         1 <0>         0.1691
     46 H11         2.5169    1.3895   -0.6954 H         1 <0>         0.2333
     47 H12         3.1413   -4.9539    0.4695 H         1 <0>         0.2008
     48 H13         1.9397   -3.2169    5.0064 H         1 <0>         0.1343
     49 H14         4.0533   -3.6696    6.1268 H         1 <0>         0.1445
     50 H15         4.5923   -8.0481    3.2296 H         1 <0>         0.4189
     51 H16         5.1068   -6.8705    6.5135 H         1 <0>         0.1440
     52 H17         7.1132   -7.2914    7.8751 H         1 <0>         0.1335
     53 H18         9.0841   -8.9503    4.4731 H         1 <0>         0.1349
     54 H19         7.0780   -8.5436    3.1067 H         1 <0>         0.1324
@<TRIPOS>BOND
     1    1    2 1
     2    1   37 1
     3    1   38 1
     4    1   39 1
     5    2    7 ar
     6    2    3 ar
     7    3    4 ar
     8    3   40 1
     9    4    5 ar
    10    4   41 1
    11    5   28 ar
    12    5    6 ar
    13    6    7 ar
    14    6   25 ar
    15    7    8 1
    16    8    9 1
    17    8   42 1
    18    9   14 ar
    19    9   10 ar
    20   10   11 ar
    21   10   15 1
    22   11   12 ar
    23   11   43 1
    24   12   13 ar
    25   12   44 1
    26   13   14 ar
    27   13   45 1
    28   15   24 ar
    29   15   16 ar
    30   16   17 ar
    31   16   21 1
    32   17   18 1
    33   17   22 ar
    34   18   20 2
    35   19   21 1
    36   20   46 1
    37   20   21 1
    38   22   23 ar
    39   23   47 1
    40   23   24 ar
    41   25   26 ar
    42   25   48 1
    43   26   27 ar
    44   26   49 1
    45   27   28 ar
    46   28   29 1
    47   29   30 1
    48   29   50 1
    49   30   35 ar
    50   30   31 ar
    51   31   32 ar
    52   31   51 1
    53   32   33 ar
    54   32   52 1
    55   33   34 ar
    56   33   36 1
    57   34   35 ar
    58   34   53 1
    59   35   54 1
@<TRIPOS>MOLECULE
CHEMBL585921__1
   54    59     0     0     0
SMALL
USER_CHARGES

@<TRIPOS>ATOM
      1 C1         -2.1327    0.3657    0.7852 C.3       1 <0>        -0.1135
      2 C2         -0.9098   -0.3324    0.2483 C.ar      1 <0>        -0.0378
      3 C3         -0.9155   -0.8271   -1.0520 C.ar      1 <0>        -0.1149
      4 C4          0.1737   -1.4637   -1.5687 C.ar      1 <0>        -0.0826
      5 C5          1.3232   -1.6271   -0.7840 C.ar      1 <0>        -0.1321
      6 C6          1.3411   -1.1276    0.5416 C.ar      1 <0>         0.0175
      7 C7          0.2051   -0.4689    1.0500 C.ar      1 <0>         0.1435
      8 N1          0.2047    0.0350    2.3510 N.pl3     1 <0>        -0.6521
      9 C8          0.3638    1.3954    2.5677 C.ar      1 <0>         0.4491
     10 C9          0.5372    1.8783    3.8745 C.ar      1 <0>        -0.1928
     11 C10         0.6960    3.2523    4.0691 C.ar      1 <0>         0.0117
     12 C11         0.6754    4.0812    2.9594 C.ar      1 <0>        -0.2422
     13 C12         0.5001    3.5318    1.7031 C.ar      1 <0>         0.1772
     14 N2          0.3568    2.2303    1.5409 N.ar      1 <0>        -0.5388
     15 C13         0.5508    0.9487    5.0249 C.ar      1 <0>         0.3182
     16 C14         0.8751    1.4045    6.3163 C.ar      1 <0>        -0.0486
     17 C15         0.8708    0.4712    7.3698 C.ar      1 <0>         0.2834
     18 N3          1.2165    1.1733    8.4972 N.pl3     1 <0>        -0.5797
     19 H1          1.3025    0.8134    9.3939 H         1 <0>         0.4351
     20 C16         1.4170    2.4689    8.1257 C.2       1 <0>         0.2803
     21 N4          1.2161    2.6017    6.8460 N.2       1 <0>        -0.4701
     22 N5          0.5642   -0.7938    7.1097 N.ar      1 <0>        -0.5225
     23 C17         0.2674   -1.1757    5.8847 C.ar      1 <0>         0.3344
     24 N6          0.2513   -0.3392    4.8649 N.ar      1 <0>        -0.5490
     25 C18         2.5085   -1.3052    1.3066 C.ar      1 <0>        -0.2008
     26 C19         3.5703   -1.9469    0.7460 C.ar      1 <0>         0.1271
     27 N7          3.5354   -2.4076   -0.4973 N.ar      1 <0>        -0.5421
     28 C20         2.4768   -2.2789   -1.2742 C.ar      1 <0>         0.4253
     29 N8          2.4964   -2.7809   -2.5657 N.pl3     1 <0>        -0.6517
     30 C21         3.6036   -3.5053   -3.0174 C.ar      1 <0>         0.1696
     31 C22         4.3297   -4.2910   -2.1314 C.ar      1 <0>        -0.1048
     32 C23         5.4230   -5.0054   -2.5803 C.ar      1 <0>        -0.0892
     33 C24         5.7954   -4.9391   -3.9115 C.ar      1 <0>        -0.0565
     34 C25         5.0741   -4.1568   -4.7963 C.ar      1 <0>        -0.0881
     35 C26         3.9763   -3.4451   -4.3542 C.ar      1 <0>        -0.1431
     36 Cl1         7.1702   -5.8385   -4.4723 Cl        1 <0>        -0.0737
     37 H2         -2.0525    1.4361    0.5958 H         1 <0>         0.0788
     38 H3         -3.0213   -0.0254    0.2897 H         1 <0>         0.0668
     39 H4         -2.2088    0.1914    1.8585 H         1 <0>         0.0654
     40 H5         -1.7980   -0.7051   -1.6625 H         1 <0>         0.1302
     41 H6          0.1506   -1.8414   -2.5803 H         1 <0>         0.1250
     42 H7          0.0932   -0.5663    3.1039 H         1 <0>         0.4330
     43 H8          0.8313    3.6586    5.0606 H         1 <0>         0.1620
     44 H9          0.7951    5.1483    3.0748 H         1 <0>         0.1386
     45 H10         0.4838    4.1790    0.8387 H         1 <0>         0.1592
     46 H11         1.7009    3.2681    8.7943 H         1 <0>         0.2333
     47 H12         0.0228   -2.2129    5.7092 H         1 <0>         0.2096
     48 H13         2.5615   -0.9385    2.3210 H         1 <0>         0.1297
     49 H14         4.4677   -2.0847    1.3309 H         1 <0>         0.1530
     50 H15         1.7419   -2.6298   -3.1563 H         1 <0>         0.4190
     51 H16         4.0397   -4.3428   -1.0923 H         1 <0>         0.1478
     52 H17         5.9880   -5.6162   -1.8918 H         1 <0>         0.1345
     53 H18         5.3674   -4.1063   -5.8345 H         1 <0>         0.1356
     54 H19         3.4109   -2.8386   -5.0461 H         1 <0>         0.1326
@<TRIPOS>BOND
     1    1    2 1
     2    1   37 1
     3    1   38 1
     4    1   39 1
     5    2    7 ar
     6    2    3 ar
     7    3    4 ar
     8    3   40 1
     9    4    5 ar
    10    4   41 1
    11    5   28 ar
    12    5    6 ar
    13    6    7 ar
    14    6   25 ar
    15    7    8 1
    16    8    9 1
    17    8   42 1
    18    9   14 ar
    19    9   10 ar
    20   10   11 ar
    21   10   15 1
    22   11   12 ar
    23   11   43 1
    24   12   13 ar
    25   12   44 1
    26   13   14 ar
    27   13   45 1
    28   15   24 ar
    29   15   16 ar
    30   16   21 1
    31   16   17 ar
    32   17   18 1
    33   17   22 ar
    34   18   19 1
    35   18   20 1
    36   20   21 2
    37   20   46 1
    38   22   23 ar
    39   23   24 ar
    40   23   47 1
    41   25   26 ar
    42   25   48 1
    43   26   27 ar
    44   26   49 1
    45   27   28 ar
    46   28   29 1
    47   29   30 1
    48   29   50 1
    49   30   35 ar
    50   30   31 ar
    51   31   32 ar
    52   31   51 1
    53   32   33 ar
    54   32   52 1
    55   33   34 ar
    56   33   36 1
    57   34   35 ar
    58   34   53 1
    59   35   54 1
@<TRIPOS>MOLECULE
CHEMBL198136
   65    69     0     0     0
SMALL
USER_CHARGES

@<TRIPOS>ATOM
      1 C1         -1.7136    1.5956   -0.3036 C.3       1 <0>        -0.0471
      2 N1         -1.5498    0.1376   -0.3763 N.4       1 <0>        -0.3875
      3 C2         -2.8376   -0.5121   -0.1040 C.3       1 <0>        -0.0015
      4 C3         -2.6913   -2.0275   -0.2580 C.3       1 <0>        -0.1594
      5 C4         -1.6411   -2.5368    0.7334 C.3       1 <0>         0.1685
      6 C5         -0.3219   -1.7986    0.4886 C.3       1 <0>        -0.1584
      7 C6         -0.5560   -0.2917    0.6149 C.3       1 <0>        -0.0015
      8 N2         -1.4410   -3.9751    0.5392 N.pl3     1 <0>        -0.3894
      9 C7         -1.6556   -4.9344    1.4834 C.ar      1 <0>         0.3825
     10 C8         -1.3446   -6.1712    0.8878 C.ar      1 <0>        -0.3253
     11 C9         -0.9281   -5.8773   -0.4833 C.2       1 <0>         0.1984
     12 N3         -1.0057   -4.5775   -0.6460 N.2       1 <0>        -0.2500
     13 C10        -0.5026   -6.8657   -1.5025 C.ar      1 <0>        -0.0181
     14 C11        -1.2137   -8.0548   -1.6613 C.ar      1 <0>        -0.1189
     15 C12        -0.8177   -8.9747   -2.6097 C.ar      1 <0>        -0.0980
     16 C13         0.2893   -8.7196   -3.4081 C.ar      1 <0>         0.1465
     17 C14         1.0036   -7.5322   -3.2534 C.ar      1 <0>         0.1044
     18 C15         0.6056   -6.6051   -2.3076 C.ar      1 <0>        -0.1497
     19 O1          2.0878   -7.2837   -4.0355 O.3       1 <0>        -0.3154
     20 C16         2.7718   -6.0473   -3.8223 C.3       1 <0>         0.0280
     21 N4          0.6888   -9.6555   -4.3688 N.am      1 <0>        -0.6534
     22 C17        -0.1839  -10.5831   -4.8097 C.2       1 <0>         0.5615
     23 O2         -1.3440  -10.5472   -4.4474 O.2       1 <0>        -0.4915
     24 C18         0.2688  -11.6430   -5.7328 C.ar      1 <0>        -0.1502
     25 C19         1.6019  -11.6909   -6.1468 C.ar      1 <0>        -0.0555
     26 C20         2.0180  -12.6830   -7.0088 C.ar      1 <0>        -0.0868
     27 C21         1.1188  -13.6315   -7.4657 C.ar      1 <0>        -0.1217
     28 C22        -0.2025  -13.5924   -7.0622 C.ar      1 <0>        -0.1129
     29 C23        -0.6337  -12.6072   -6.1925 C.ar      1 <0>         0.1692
     30 F1         -1.9240  -12.5726   -5.7934 F         1 <0>        -0.1014
     31 C24         1.5831  -14.7119   -8.4081 C.3       1 <0>         0.5090
     32 F2          2.0185  -15.8183   -7.6710 F         1 <0>        -0.1678
     33 F3          0.5240  -15.0927   -9.2391 F         1 <0>        -0.1697
     34 F4          2.6379  -14.2277   -9.1893 F         1 <0>        -0.1693
     35 C25        -1.4820   -7.3393    1.6552 C.ar      1 <0>         0.5239
     36 N5         -1.9004   -7.2231    2.9119 N.ar      1 <0>        -0.5976
     37 C26        -2.1814   -6.0412    3.4309 C.ar      1 <0>         0.3980
     38 N6         -2.0681   -4.9215    2.7507 N.ar      1 <0>        -0.5828
     39 N7         -1.1900   -8.5780    1.1178 N.pl3     1 <0>        -0.8210
     40 H1         -0.7593    2.0792   -0.5122 H         1 <0>         0.1253
     41 H2         -2.4515    1.9155   -1.0393 H         1 <0>         0.1255
     42 H3         -2.0515    1.8740    0.6946 H         1 <0>         0.1236
     43 H4         -3.1535   -0.2795    0.9130 H         1 <0>         0.1342
     44 H5         -3.5847   -0.1462   -0.8083 H         1 <0>         0.1388
     45 H6         -3.6481   -2.5081   -0.0537 H         1 <0>         0.1176
     46 H7         -2.3756   -2.2612   -1.2748 H         1 <0>         0.1022
     47 H8         -1.9802   -2.3491    1.7521 H         1 <0>         0.1248
     48 H9          0.4150   -2.1156    1.2265 H         1 <0>         0.1171
     49 H10         0.0430   -2.0276   -0.5127 H         1 <0>         0.1015
     50 H11         0.3813    0.2369    0.4414 H         1 <0>         0.1385
     51 H12        -0.9205   -0.0638    1.6166 H         1 <0>         0.1342
     52 H13        -2.0746   -8.2557   -1.0409 H         1 <0>         0.1397
     53 H14        -1.3695   -9.8951   -2.7313 H         1 <0>         0.1728
     54 H15         1.1551   -5.6829   -2.1895 H         1 <0>         0.1395
     55 H16         3.1356   -6.0057   -2.7956 H         1 <0>         0.0581
     56 H17         3.6147   -5.9752   -4.5096 H         1 <0>         0.1072
     57 H18         2.0869   -5.2180   -3.9990 H         1 <0>         0.0572
     58 H19         1.5938   -9.6366   -4.7174 H         1 <0>         0.4192
     59 H20         2.3053  -10.9519   -5.7926 H         1 <0>         0.1500
     60 H21         3.0488  -12.7202   -7.3290 H         1 <0>         0.1556
     61 H22        -0.8985  -14.3352   -7.4232 H         1 <0>         0.1620
     62 H23        -2.5187   -5.9927    4.4558 H         1 <0>         0.2094
     63 H24        -0.7009   -8.6413    0.2825 H         1 <0>         0.4163
     64 H25        -1.4742   -9.3845    1.5757 H         1 <0>         0.4157
     65 H26        -1.2347   -0.1188   -1.2999 H         1 <0>         0.4265
@<TRIPOS>BOND
     1    1    2 1
     2    1   40 1
     3    1   41 1
     4    1   42 1
     5    2    7 1
     6    2    3 1
     7    2   65 1
     8    3    4 1
     9    3   43 1
    10    3   44 1
    11    4    5 1
    12    4   45 1
    13    4   46 1
    14    5    6 1
    15    5    8 1
    16    5   47 1
    17    6    7 1
    18    6   48 1
    19    6   49 1
    20    7   50 1
    21    7   51 1
    22    8   12 1
    23    8    9 1
    24    9   38 ar
    25    9   10 ar
    26   10   11 1
    27   10   35 ar
    28   11   12 2
    29   11   13 1
    30   13   18 ar
    31   13   14 ar
    32   14   15 ar
    33   14   52 1
    34   15   16 ar
    35   15   53 1
    36   16   17 ar
    37   16   21 1
    38   17   18 ar
    39   17   19 1
    40   18   54 1
    41   19   20 1
    42   20   55 1
    43   20   56 1
    44   20   57 1
    45   21   22 am
    46   21   58 1
    47   22   23 2
    48   22   24 1
    49   24   29 ar
    50   24   25 ar
    51   25   26 ar
    52   25   59 1
    53   26   27 ar
    54   26   60 1
    55   27   28 ar
    56   27   31 1
    57   28   29 ar
    58   28   61 1
    59   29   30 1
    60   31   32 1
    61   31   33 1
    62   31   34 1
    63   35   36 ar
    64   35   39 1
    65   36   37 ar
    66   37   38 ar
    67   37   62 1
    68   39   63 1
    69   39   64 1
@<TRIPOS>MOLECULE
CHEMBL212632
   59    62     0     0     0
SMALL
USER_CHARGES

@<TRIPOS>ATOM
      1 C1          0.9749   -6.9326   -5.8045 C.3       1 <0>        -0.0469
      2 N1          1.0216   -6.5360   -4.3908 N.4       1 <0>        -0.3838
      3 C2          1.5247   -7.6567   -3.5863 C.3       1 <0>        -0.0233
      4 C3          1.6823   -7.2081   -2.1297 C.3       1 <0>         0.0997
      5 N2          0.3977   -6.6586   -1.6693 N.pl3     1 <0>        -0.6460
      6 C4         -0.2609   -5.6425   -2.5046 C.3       1 <0>         0.1008
      7 C5         -0.3268   -6.1649   -3.9436 C.3       1 <0>        -0.0229
      8 C6         -0.1816   -7.0907   -0.4708 C.ar      1 <0>         0.1764
      9 C7          0.3965   -8.1314    0.2443 C.ar      1 <0>        -0.1627
     10 C8         -0.1749   -8.5573    1.4269 C.ar      1 <0>        -0.0647
     11 C9         -1.3275   -7.9451    1.9013 C.ar      1 <0>         0.1307
     12 C10        -1.9056   -6.9044    1.1862 C.ar      1 <0>        -0.1040
     13 C11        -1.3313   -6.4749    0.0063 C.ar      1 <0>        -0.1628
     14 N3         -1.9073   -8.3775    3.1008 N.pl3     1 <0>        -0.6532
     15 C12        -1.1033   -8.8323    4.1351 C.ar      1 <0>         0.4487
     16 C13        -1.6710   -9.3782    5.2837 C.ar      1 <0>        -0.3235
     17 C14        -0.8217   -9.8197    6.2919 C.ar      1 <0>         0.4557
     18 N4          0.4942   -9.7056    6.1247 N.ar      1 <0>        -0.5363
     19 C15         0.9934   -9.1834    5.0232 C.ar      1 <0>         0.3661
     20 N5          0.2229   -8.7585    4.0425 N.ar      1 <0>        -0.5882
     21 N6         -1.3393  -10.3720    7.4587 N.am      1 <0>        -0.5520
     22 C16        -2.7818  -10.5931    7.5873 C.3       1 <0>         0.0640
     23 C17        -0.5138  -10.7040    8.4710 C.2       1 <0>         0.6959
     24 O1          0.6833  -10.5206    8.3643 O.2       1 <0>        -0.4826
     25 N7         -1.0153  -11.2393    9.6016 N.am      1 <0>        -0.6838
     26 C18        -0.1503  -11.6931   10.6053 C.ar      1 <0>         0.1700
     27 C19         0.8383  -10.8541   11.1041 C.ar      1 <0>        -0.0184
     28 C20         1.6904  -11.3054   12.0947 C.ar      1 <0>        -0.0939
     29 C21         1.5599  -12.5902   12.5887 C.ar      1 <0>        -0.0966
     30 C22         0.5771  -13.4279   12.0945 C.ar      1 <0>        -0.0935
     31 C23        -0.2824  -12.9813   11.1083 C.ar      1 <0>        -0.0404
     32 Cl1        -1.5206  -14.0315   10.4938 Cl        1 <0>        -0.0509
     33 Cl2         1.0038   -9.2412   10.4838 Cl        1 <0>        -0.0296
     34 H1          0.6091   -6.0989   -6.4039 H         1 <0>         0.1247
     35 H2          1.9753   -7.2084   -6.1378 H         1 <0>         0.1249
     36 H3          0.3054   -7.7849   -5.9208 H         1 <0>         0.1213
     37 H4          0.8191   -8.4859   -3.6369 H         1 <0>         0.1320
     38 H5          2.4913   -7.9776   -3.9745 H         1 <0>         0.1403
     39 H6          1.9581   -8.0623   -1.5112 H         1 <0>         0.1270
     40 H7          2.4535   -6.4406   -2.0642 H         1 <0>         0.0868
     41 H8         -1.2698   -5.4615   -2.1341 H         1 <0>         0.1255
     42 H9          0.3141   -4.7169   -2.4770 H         1 <0>         0.0861
     43 H10        -0.7245   -5.3867   -4.5949 H         1 <0>         0.1399
     44 H11        -0.9764   -7.0393   -3.9833 H         1 <0>         0.1319
     45 H12         1.2927   -8.6078   -0.1248 H         1 <0>         0.1247
     46 H13         0.2745   -9.3669    1.9829 H         1 <0>         0.1406
     47 H14        -2.8022   -6.4285    1.5550 H         1 <0>         0.1288
     48 H15        -1.7784   -5.6627   -0.5476 H         1 <0>         0.1251
     49 H16        -2.8712   -8.3588    3.2079 H         1 <0>         0.4208
     50 H17        -2.7430   -9.4563    5.3886 H         1 <0>         0.1459
     51 H18         2.0656   -9.1053    4.9191 H         1 <0>         0.2008
     52 H19        -3.0307  -11.5893    7.2217 H         1 <0>         0.0776
     53 H20        -3.0705  -10.5078    8.6349 H         1 <0>         0.0828
     54 H21        -3.3175   -9.8466    7.0009 H         1 <0>         0.0913
     55 H22        -1.9754  -11.3103    9.7203 H         1 <0>         0.4094
     56 H23         2.4592  -10.6537   12.4829 H         1 <0>         0.1455
     57 H24         2.2275  -12.9404   13.3621 H         1 <0>         0.1472
     58 H25         0.4783  -14.4310   12.4824 H         1 <0>         0.1464
     59 H26         1.6393   -5.7452   -4.2849 H         1 <0>         0.4246
@<TRIPOS>BOND
     1    1    2 1
     2    1   34 1
     3    1   35 1
     4    1   36 1
     5    2    7 1
     6    2    3 1
     7    2   59 1
     8    3    4 1
     9    3   37 1
    10    3   38 1
    11    4    5 1
    12    4   39 1
    13    4   40 1
    14    5    6 1
    15    5    8 1
    16    6    7 1
    17    6   41 1
    18    6   42 1
    19    7   43 1
    20    7   44 1
    21    8   13 ar
    22    8    9 ar
    23    9   10 ar
    24    9   45 1
    25   10   11 ar
    26   10   46 1
    27   11   12 ar
    28   11   14 1
    29   12   13 ar
    30   12   47 1
    31   13   48 1
    32   14   15 1
    33   14   49 1
    34   15   20 ar
    35   15   16 ar
    36   16   17 ar
    37   16   50 1
    38   17   18 ar
    39   17   21 1
    40   18   19 ar
    41   19   20 ar
    42   19   51 1
    43   21   22 1
    44   21   23 am
    45   22   52 1
    46   22   53 1
    47   22   54 1
    48   23   24 2
    49   23   25 am
    50   25   26 1
    51   25   55 1
    52   26   31 ar
    53   26   27 ar
    54   27   28 ar
    55   27   33 1
    56   28   29 ar
    57   28   56 1
    58   29   30 ar
    59   29   57 1
    60   30   31 ar
    61   30   58 1
    62   31   32 1
@<TRIPOS>MOLECULE
CHEMBL212632__1
   58    61     0     0     0
SMALL
USER_CHARGES

@<TRIPOS>ATOM
      1 C1          1.3501   -6.6886   -6.0630 C.3       1 <0>         0.0243
      2 N1          1.3029   -6.3901   -4.6254 N.3       1 <0>        -0.5428
      3 C2          1.8280   -7.5129   -3.8370 C.3       1 <0>         0.0384
      4 C3          1.9308   -7.0958   -2.3661 C.3       1 <0>         0.1259
      5 N2          0.6201   -6.5897   -1.9312 N.pl3     1 <0>        -0.6324
      6 C4         -0.0339   -5.5578   -2.7500 C.3       1 <0>         0.1269
      7 C5         -0.0594   -6.0353   -4.2059 C.3       1 <0>         0.0388
      8 C6          0.0113   -7.0775   -0.7693 C.ar      1 <0>         0.2080
      9 C7          0.5879   -8.1319   -0.0733 C.ar      1 <0>        -0.1805
     10 C8         -0.0125   -8.6127    1.0733 C.ar      1 <0>        -0.0579
     11 C9         -1.1931   -8.0421    1.5305 C.ar      1 <0>         0.0953
     12 C10        -1.7698   -6.9878    0.8346 C.ar      1 <0>        -0.0965
     13 C11        -1.1666   -6.5034   -0.3091 C.ar      1 <0>        -0.1813
     14 N3         -1.8025   -8.5303    2.6934 N.pl3     1 <0>        -0.6479
     15 C12        -1.0232   -9.0062    3.7371 C.ar      1 <0>         0.4534
     16 C13        -1.6163   -9.6054    4.8456 C.ar      1 <0>        -0.3289
     17 C14        -0.7912  -10.0661    5.8652 C.ar      1 <0>         0.4510
     18 N4          0.5267   -9.9191    5.7465 N.ar      1 <0>        -0.5428
     19 C15         1.0504   -9.3466    4.6819 C.ar      1 <0>         0.3654
     20 N5          0.3034   -8.9020    3.6918 N.ar      1 <0>        -0.5826
     21 N6         -1.3347  -10.6714    6.9932 N.am      1 <0>        -0.5523
     22 C16        -2.7755  -10.9266    7.0652 C.3       1 <0>         0.0656
     23 C17        -0.5359  -11.0233    8.0201 C.2       1 <0>         0.6958
     24 O1          0.6598  -10.8116    7.9603 O.2       1 <0>        -0.4828
     25 N7         -1.0626  -11.6099    9.1133 N.am      1 <0>        -0.6858
     26 C18        -0.2213  -12.0825   10.1284 C.ar      1 <0>         0.1733
     27 C19         0.7320  -11.2423   10.6901 C.ar      1 <0>        -0.0190
     28 C20         1.5606  -11.7120   11.6918 C.ar      1 <0>        -0.0942
     29 C21         1.4419  -13.0166   12.1346 C.ar      1 <0>        -0.0989
     30 C22         0.4943  -13.8556   11.5778 C.ar      1 <0>        -0.0945
     31 C23        -0.3419  -13.3907   10.5800 C.ar      1 <0>        -0.0413
     32 Cl1        -1.5362  -14.4428    9.8868 Cl        1 <0>        -0.0516
     33 Cl2         0.8827   -9.6046   10.1342 Cl        1 <0>        -0.0276
     34 H1          1.0276   -5.8132   -6.6267 H         1 <0>         0.0704
     35 H2          2.3700   -6.9481   -6.3469 H         1 <0>         0.0703
     36 H3          0.6878   -7.5261   -6.2821 H         1 <0>         0.0255
     37 H4          1.1559   -8.3662   -3.9270 H         1 <0>         0.0381
     38 H5          2.8159   -7.7868   -4.2074 H         1 <0>         0.0855
     39 H6          2.2101   -7.9576   -1.7599 H         1 <0>         0.0874
     40 H7          2.6800   -6.3113   -2.2594 H         1 <0>         0.0698
     41 H8         -1.0537   -5.4026   -2.3976 H         1 <0>         0.0857
     42 H9          0.5264   -4.6254   -2.6803 H         1 <0>         0.0692
     43 H10        -0.4404   -5.2378   -4.8437 H         1 <0>         0.0852
     44 H11        -0.7053   -6.9093   -4.2907 H         1 <0>         0.0380
     45 H12         1.5059   -8.5759   -0.4291 H         1 <0>         0.1241
     46 H13         0.4357   -9.4329    1.6143 H         1 <0>         0.1333
     47 H14        -2.6882   -6.5443    1.1900 H         1 <0>         0.1214
     48 H15        -1.6127   -5.6806   -0.8479 H         1 <0>         0.1243
     49 H16        -2.7695   -8.5354    2.7686 H         1 <0>         0.4169
     50 H17        -2.6893   -9.7092    4.9115 H         1 <0>         0.1432
     51 H18         2.1234   -9.2428    4.6168 H         1 <0>         0.1993
     52 H19        -2.9907  -11.9136    6.6559 H         1 <0>         0.0758
     53 H20        -3.1002  -10.8857    8.1050 H         1 <0>         0.0801
     54 H21        -3.3077  -10.1701    6.4885 H         1 <0>         0.0915
     55 H22        -2.0243  -11.7049    9.1969 H         1 <0>         0.4087
     56 H23         2.3019  -11.0595   12.1289 H         1 <0>         0.1447
     57 H24         2.0911  -13.3812   12.9169 H         1 <0>         0.1458
     58 H25         0.4045  -14.8740   11.9258 H         1 <0>         0.1451
@<TRIPOS>BOND
     1    1    2 1
     2    1   34 1
     3    1   35 1
     4    1   36 1
     5    2    7 1
     6    2    3 1
     7    3    4 1
     8    3   37 1
     9    3   38 1
    10    4    5 1
    11    4   39 1
    12    4   40 1
    13    5    6 1
    14    5    8 1
    15    6    7 1
    16    6   41 1
    17    6   42 1
    18    7   43 1
    19    7   44 1
    20    8   13 ar
    21    8    9 ar
    22    9   10 ar
    23    9   45 1
    24   10   11 ar
    25   10   46 1
    26   11   12 ar
    27   11   14 1
    28   12   13 ar
    29   12   47 1
    30   13   48 1
    31   14   15 1
    32   14   49 1
    33   15   20 ar
    34   15   16 ar
    35   16   17 ar
    36   16   50 1
    37   17   18 ar
    38   17   21 1
    39   18   19 ar
    40   19   20 ar
    41   19   51 1
    42   21   22 1
    43   21   23 am
    44   22   52 1
    45   22   53 1
    46   22   54 1
    47   23   24 2
    48   23   25 am
    49   25   26 1
    50   25   55 1
    51   26   31 ar
    52   26   27 ar
    53   27   28 ar
    54   27   33 1
    55   28   29 ar
    56   28   56 1
    57   29   30 ar
    58   29   57 1
    59   30   31 ar
    60   30   58 1
    61   31   32 1
@<TRIPOS>MOLECULE
CHEMBL516913
   60    64     0     0     0
SMALL
USER_CHARGES

@<TRIPOS>ATOM
      1 C1         -1.0524    0.9356   -0.1752 C.3       1 <0>        -0.1061
      2 C2          0.2954    1.1412    0.4666 C.ar      1 <0>        -0.0988
      3 C3          1.2795    1.8845   -0.1885 C.ar      1 <0>        -0.0653
      4 C4          1.3365    2.5855   -1.4737 C.2       1 <0>        -0.2125
      5 C5          2.5596    3.1302   -1.5703 C.2       1 <0>         0.0628
      6 N1          3.2911    2.8357   -0.4524 N.pl3     1 <0>        -0.5968
      7 H1          4.2044    3.1208   -0.2928 H         1 <0>         0.4159
      8 C6          2.5359    2.0738    0.4142 C.ar      1 <0>         0.0652
      9 C7          2.7885    1.5166    1.6638 C.ar      1 <0>        -0.0907
     10 C8          1.8123    0.7859    2.3020 C.ar      1 <0>        -0.1440
     11 C9          0.5635    0.6000    1.7100 C.ar      1 <0>         0.1727
     12 N2         -0.4202   -0.1414    2.3749 N.pl3     1 <0>        -0.7128
     13 C10        -0.1175   -0.7847    3.5617 C.ar      1 <0>         0.3006
     14 C11        -0.3008   -0.1275    4.8108 C.ar      1 <0>        -0.1464
     15 C12        -0.7927    1.2140    5.0659 C.2       1 <0>        -0.0765
     16 C13        -0.8895    1.6447    6.3464 C.2       1 <0>        -0.1079
     17 S1         -0.3160    0.2502    7.2966 S.3       1 <0>         0.1114
     18 C14         0.0373   -0.8694    5.9632 C.ar      1 <0>         0.1157
     19 N3          0.4990   -2.1033    5.9110 N.ar      1 <0>        -0.4414
     20 C15         0.6772   -2.7315    4.7683 C.ar      1 <0>         0.1983
     21 C16         0.3699   -2.0981    3.5581 C.ar      1 <0>        -0.0830
     22 C17         0.5594   -2.7893    2.3184 C.1       1 <0>         0.2482
     23 N4          0.7098   -3.3377    1.3350 N.1       1 <0>        -0.3787
     24 C18        -1.3580    2.9573    6.8380 C.ar      1 <0>        -0.0387
     25 C19        -2.3637    3.0265    7.8026 C.ar      1 <0>        -0.0362
     26 C20        -2.7970    4.2547    8.2577 C.ar      1 <0>        -0.2028
     27 C21        -2.2382    5.4194    7.7608 C.ar      1 <0>        -0.0387
     28 C22        -1.2415    5.3632    6.8046 C.ar      1 <0>        -0.2048
     29 C23        -0.7909    4.1376    6.3425 C.ar      1 <0>         0.1911
     30 O1          0.1928    4.0812    5.4073 O.3       1 <0>        -0.2939
     31 C24         0.6393    5.3233    4.8597 C.3       1 <0>         0.0199
     32 C25        -3.8834    4.3285    9.2995 C.3       1 <0>         0.0489
     33 N5         -3.2792    4.3195   10.6385 N.4       1 <0>        -0.3871
     34 C26        -4.3271    4.5116   11.6499 C.3       1 <0>        -0.0476
     35 C27        -2.6102    3.0314   10.8651 C.3       1 <0>        -0.0552
     36 H2         -1.7217    1.7444    0.1179 H         1 <0>         0.0677
     37 H3         -0.9416    0.9306   -1.2596 H         1 <0>         0.0722
     38 H4         -1.4690   -0.0172    0.1517 H         1 <0>         0.0570
     39 H5          0.5446    2.6513   -2.2051 H         1 <0>         0.1459
     40 H6          2.9139    3.7141   -2.4069 H         1 <0>         0.1717
     41 H7          3.7510    1.6573    2.1330 H         1 <0>         0.1220
     42 H8          2.0141    0.3557    3.2719 H         1 <0>         0.1190
     43 H9         -1.3141   -0.2040    2.0035 H         1 <0>         0.4169
     44 H10        -1.0769    1.8589    4.2475 H         1 <0>         0.1451
     45 H11         1.0578   -3.7422    4.7643 H         1 <0>         0.1878
     46 H12        -2.8027    2.1199    8.1922 H         1 <0>         0.1431
     47 H13        -2.5830    6.3771    8.1217 H         1 <0>         0.1382
     48 H14        -0.8104    6.2760    6.4207 H         1 <0>         0.1468
     49 H15         1.4244    5.1361    4.1271 H         1 <0>         0.1116
     50 H16        -0.1965    5.8284    4.3755 H         1 <0>         0.0649
     51 H17         1.0307    5.9529    5.6588 H         1 <0>         0.0636
     52 H18        -4.4543    5.2472    9.1647 H         1 <0>         0.1377
     53 H19        -4.5466    3.4698    9.1944 H         1 <0>         0.1362
     54 H20        -5.0566    3.7052   11.5750 H         1 <0>         0.1227
     55 H21        -3.8788    4.5049   12.6434 H         1 <0>         0.1245
     56 H22        -4.8235    5.4673   11.4817 H         1 <0>         0.1234
     57 H23        -1.8326    2.8888   10.1147 H         1 <0>         0.1223
     58 H24        -2.1618    3.0247   11.8586 H         1 <0>         0.1253
     59 H25        -3.3397    2.2250   10.7903 H         1 <0>         0.1237
     60 H26        -2.6039    5.0660   10.7078 H         1 <0>         0.4258
@<TRIPOS>BOND
     1    1    2 1
     2    1   36 1
     3    1   37 1
     4    1   38 1
     5    2   11 ar
     6    2    3 ar
     7    3    8 ar
     8    3    4 1
     9    4    5 2
    10    4   39 1
    11    5    6 1
    12    5   40 1
    13    6    7 1
    14    6    8 1
    15    8    9 ar
    16    9   10 ar
    17    9   41 1
    18   10   11 ar
    19   10   42 1
    20   11   12 1
    21   12   13 1
    22   12   43 1
    23   13   21 ar
    24   13   14 ar
    25   14   18 ar
    26   14   15 1
    27   15   16 2
    28   15   44 1
    29   16   17 1
    30   16   24 1
    31   17   18 1
    32   18   19 ar
    33   19   20 ar
    34   20   21 ar
    35   20   45 1
    36   21   22 1
    37   22   23 3
    38   24   29 ar
    39   24   25 ar
    40   25   26 ar
    41   25   46 1
    42   26   27 ar
    43   26   32 1
    44   27   28 ar
    45   27   47 1
    46   28   29 ar
    47   28   48 1
    48   29   30 1
    49   30   31 1
    50   31   49 1
    51   31   50 1
    52   31   51 1
    53   32   33 1
    54   32   52 1
    55   32   53 1
    56   33   34 1
    57   33   35 1
    58   33   60 1
    59   34   54 1
    60   34   55 1
    61   34   56 1
    62   35   57 1
    63   35   58 1
    64   35   59 1
@<TRIPOS>MOLECULE
CHEMBL431609
   81    87     0     0     0
SMALL
USER_CHARGES

@<TRIPOS>ATOM
      1 C1         -2.2662    1.7211   -0.1085 C.3       1 <0>        -0.0459
      2 N1         -2.1390    0.2606   -0.2014 N.4       1 <0>        -0.3885
      3 C2         -3.4399   -0.3625    0.0762 C.3       1 <0>        -0.0021
      4 C3         -3.3122   -1.8831   -0.0389 C.3       1 <0>         0.0200
      5 N2         -2.3060   -2.3613    0.9197 N.3       1 <0>        -0.5345
      6 C4         -1.0040   -1.7271    0.6697 C.3       1 <0>         0.0195
      7 C5         -1.1506   -0.2078    0.7790 C.3       1 <0>        -0.0021
      8 C6         -2.1948   -3.8256    0.8795 C.3       1 <0>         0.0859
      9 C7         -3.5459   -4.4496    1.2342 C.3       1 <0>        -0.1099
     10 C8         -3.4301   -5.9747    1.1924 C.3       1 <0>        -0.1276
     11 C9         -2.3756   -6.4339    2.2013 C.3       1 <0>         0.1739
     12 C10        -1.0244   -5.8098    1.8466 C.3       1 <0>        -0.1265
     13 C11        -1.1403   -4.2848    1.8885 C.3       1 <0>        -0.1113
     14 N3         -2.2646   -7.8941    2.1613 N.pl3     1 <0>        -0.3777
     15 C12        -2.4986   -8.7306    3.2118 C.ar      1 <0>         0.3783
     16 C13        -2.2802  -10.0413    2.7473 C.ar      1 <0>        -0.3249
     17 C14        -1.8982   -9.9236    1.3402 C.2       1 <0>         0.1777
     18 N4         -1.9079   -8.6468    1.0374 N.2       1 <0>        -0.2385
     19 C15        -1.5679  -11.0407    0.4238 C.ar      1 <0>        -0.0080
     20 C16        -2.3518  -12.1940    0.4181 C.ar      1 <0>        -0.1207
     21 C17        -2.0445  -13.2336   -0.4346 C.ar      1 <0>        -0.0974
     22 C18        -0.9547  -13.1344   -1.2894 C.ar      1 <0>         0.1416
     23 C19        -0.1680  -11.9833   -1.2879 C.ar      1 <0>         0.1022
     24 C20        -0.4763  -10.9372   -0.4376 C.ar      1 <0>        -0.1510
     25 O1          0.8993  -11.8875   -2.1251 O.3       1 <0>        -0.3179
     26 C21         1.6607  -10.6796   -2.0700 C.3       1 <0>         0.0280
     27 N5         -0.6454  -14.1911   -2.1529 N.am      1 <0>        -0.6595
     28 C22        -1.5859  -15.1054   -2.4629 C.2       1 <0>         0.5889
     29 O2         -2.7288  -14.9589   -2.0724 O.2       1 <0>        -0.4977
     30 C23        -1.2307  -16.2798   -3.2730 C.2       1 <0>         0.0004
     31 C24        -2.0882  -17.2627   -3.6539 C.2       1 <0>        -0.0860
     32 C25        -1.3550  -18.2023   -4.4182 C.ar      1 <0>        -0.1251
     33 C26        -1.6998  -19.3985   -5.0609 C.ar      1 <0>        -0.0562
     34 C27        -0.7480  -20.1041   -5.7375 C.ar      1 <0>        -0.1469
     35 C28         0.5631  -19.6482   -5.7956 C.ar      1 <0>        -0.0784
     36 C29         0.9268  -18.4760   -5.1718 C.ar      1 <0>        -0.1371
     37 C30        -0.0265  -17.7376   -4.4760 C.ar      1 <0>         0.1207
     38 N6          0.0268  -16.5569   -3.7734 N.pl3     1 <0>        -0.5810
     39 H1          0.8178  -16.0098   -3.6477 H         1 <0>         0.4168
     40 C31        -2.4559  -11.1088    3.6428 C.ar      1 <0>         0.5209
     41 N7         -2.8212  -10.8319    4.8909 N.ar      1 <0>        -0.6023
     42 C32        -3.0155   -9.5859    5.2844 C.ar      1 <0>         0.3909
     43 N8         -2.8627   -8.5554    4.4818 N.ar      1 <0>        -0.5788
     44 N9         -2.2546  -12.4139    3.2369 N.pl3     1 <0>        -0.8248
     45 H2         -1.3013    2.1838   -0.3158 H         1 <0>         0.1240
     46 H3         -2.9996    2.0690   -0.8359 H         1 <0>         0.1241
     47 H4         -2.5920    1.9944    0.8951 H         1 <0>         0.1233
     48 H5         -3.7606   -0.1001    1.0844 H         1 <0>         0.1381
     49 H6         -4.1754   -0.0041   -0.6439 H         1 <0>         0.1354
     50 H7         -4.2739   -2.3465    0.1817 H         1 <0>         0.1268
     51 H8         -3.0047   -2.1466   -1.0509 H         1 <0>         0.0605
     52 H9         -0.2815   -2.0768    1.4072 H         1 <0>         0.1271
     53 H10        -0.6584   -1.9881   -0.3306 H         1 <0>         0.0602
     54 H11        -0.1890    0.2652    0.5798 H         1 <0>         0.1352
     55 H12        -1.4831    0.0537    1.7835 H         1 <0>         0.1380
     56 H13        -1.9009   -4.1403   -0.1218 H         1 <0>         0.0566
     57 H14        -3.8398   -4.1349    2.2356 H         1 <0>         0.0824
     58 H15        -4.2972   -4.1225    0.5154 H         1 <0>         0.0719
     59 H16        -4.3927   -6.4193    1.4451 H         1 <0>         0.0769
     60 H17        -3.1362   -6.2894    0.1910 H         1 <0>         0.0784
     61 H18        -2.6694   -6.1192    3.2027 H         1 <0>         0.1125
     62 H19        -0.2731   -6.1370    2.5654 H         1 <0>         0.0762
     63 H20        -0.7305   -6.1246    0.8453 H         1 <0>         0.0778
     64 H21        -0.1777   -3.8402    1.6357 H         1 <0>         0.0719
     65 H22        -1.4341   -3.9701    2.8898 H         1 <0>         0.0826
     66 H23        -3.1999  -12.2733    1.0821 H         1 <0>         0.1399
     67 H24        -2.6523  -14.1263   -0.4373 H         1 <0>         0.1721
     68 H25         0.1298  -10.0433   -0.4378 H         1 <0>         0.1393
     69 H26         1.0187   -9.8338   -2.3160 H         1 <0>         0.0580
     70 H27         2.0638  -10.5497   -1.0656 H         1 <0>         0.0582
     71 H28         2.4805  -10.7338   -2.7863 H         1 <0>         0.1049
     72 H29         0.2459  -14.2657   -2.5284 H         1 <0>         0.4136
     73 H30        -3.1403  -17.3175   -3.4160 H         1 <0>         0.1594
     74 H31        -2.7163  -19.7612   -5.0207 H         1 <0>         0.1285
     75 H32        -1.0163  -21.0260   -6.2322 H         1 <0>         0.1279
     76 H33         1.3043  -20.2190   -6.3351 H         1 <0>         0.1305
     77 H34         1.9486  -18.1298   -5.2228 H         1 <0>         0.1243
     78 H35        -3.3116   -9.4061    6.3073 H         1 <0>         0.2063
     79 H36        -1.8038  -12.5968    2.3977 H         1 <0>         0.4149
     80 H37        -2.5641  -13.1474    3.7910 H         1 <0>         0.4131
     81 H38        -1.8369    0.0079   -1.1304 H         1 <0>         0.4221
@<TRIPOS>BOND
     1    1    2 1
     2    1   45 1
     3    1   46 1
     4    1   47 1
     5    2    7 1
     6    2    3 1
     7    2   81 1
     8    3    4 1
     9    3   48 1
    10    3   49 1
    11    4    5 1
    12    4   50 1
    13    4   51 1
    14    5    6 1
    15    5    8 1
    16    6    7 1
    17    6   52 1
    18    6   53 1
    19    7   54 1
    20    7   55 1
    21    8   13 1
    22    8    9 1
    23    8   56 1
    24    9   10 1
    25    9   57 1
    26    9   58 1
    27   10   11 1
    28   10   59 1
    29   10   60 1
    30   11   12 1
    31   11   14 1
    32   11   61 1
    33   12   13 1
    34   12   62 1
    35   12   63 1
    36   13   64 1
    37   13   65 1
    38   14   18 1
    39   14   15 1
    40   15   43 ar
    41   15   16 ar
    42   16   17 1
    43   16   40 ar
    44   17   18 2
    45   17   19 1
    46   19   24 ar
    47   19   20 ar
    48   20   21 ar
    49   20   66 1
    50   21   22 ar
    51   21   67 1
    52   22   23 ar
    53   22   27 1
    54   23   24 ar
    55   23   25 1
    56   24   68 1
    57   25   26 1
    58   26   69 1
    59   26   70 1
    60   26   71 1
    61   27   28 am
    62   27   72 1
    63   28   29 2
    64   28   30 1
    65   30   38 1
    66   30   31 2
    67   31   32 1
    68   31   73 1
    69   32   37 ar
    70   32   33 ar
    71   33   34 ar
    72   33   74 1
    73   34   35 ar
    74   34   75 1
    75   35   36 ar
    76   35   76 1
    77   36   37 ar
    78   36   77 1
    79   37   38 1
    80   38   39 1
    81   40   41 ar
    82   40   44 1
    83   41   42 ar
    84   42   43 ar
    85   42   78 1
    86   44   79 1
    87   44   80 1
@<TRIPOS>MOLECULE
CHEMBL431609__1
   81    87     0     0     0
SMALL
USER_CHARGES

@<TRIPOS>ATOM
      1 C1         -2.3041    1.6606   -0.2480 C.3       1 <0>         0.0194
      2 N1         -2.1502    0.2016   -0.3232 N.3       1 <0>        -0.5435
      3 C2         -3.4414   -0.4746   -0.1349 C.3       1 <0>         0.0253
      4 C3         -3.2483   -1.9858   -0.2793 C.3       1 <0>        -0.0067
      5 N2         -2.2804   -2.4537    0.7216 N.4       1 <0>        -0.3838
      6 C4         -0.9892   -1.7879    0.5053 C.3       1 <0>        -0.0066
      7 C5         -1.1635   -0.2751    0.6563 C.3       1 <0>         0.0254
      8 C6         -2.1089   -3.9071    0.5944 C.3       1 <0>         0.0237
      9 C7         -3.4535   -4.6011    0.8214 C.3       1 <0>        -0.1365
     10 C8         -3.2748   -6.1149    0.6889 C.3       1 <0>        -0.1261
     11 C9         -2.2667   -6.6026    1.7313 C.3       1 <0>         0.1715
     12 C10        -0.9222   -5.9087    1.5043 C.3       1 <0>        -0.1252
     13 C11        -1.1008   -4.3949    1.6368 C.3       1 <0>        -0.1364
     14 N3         -2.0957   -8.0521    1.6045 N.pl3     1 <0>        -0.3834
     15 C12        -2.3603   -8.9646    2.5819 C.ar      1 <0>         0.3798
     16 C13        -2.0620  -10.2328    2.0489 C.ar      1 <0>        -0.3251
     17 C14        -1.5995  -10.0079    0.6795 C.2       1 <0>         0.1876
     18 N4         -1.6412   -8.7149    0.4595 N.2       1 <0>        -0.2428
     19 C15        -1.1696  -11.0489   -0.2840 C.ar      1 <0>        -0.0137
     20 C16        -1.9054  -12.2264   -0.4139 C.ar      1 <0>        -0.1198
     21 C17        -1.5054  -13.1951   -1.3105 C.ar      1 <0>        -0.0978
     22 C18        -0.3700  -13.0005   -2.0859 C.ar      1 <0>         0.1448
     23 C19         0.3688  -11.8248   -1.9602 C.ar      1 <0>         0.1024
     24 C20        -0.0322  -10.8494   -1.0657 C.ar      1 <0>        -0.1500
     25 O1          1.4807  -11.6355   -2.7198 O.3       1 <0>        -0.3172
     26 C21         2.1888  -10.4076   -2.5386 C.3       1 <0>         0.0280
     27 N5          0.0332  -13.9856   -2.9942 N.am      1 <0>        -0.6600
     28 C22        -0.8495  -14.9100   -3.4217 C.2       1 <0>         0.5897
     29 O2         -2.0191  -14.8306   -3.0962 O.2       1 <0>        -0.4976
     30 C23        -0.3990  -16.0143   -4.2814 C.2       1 <0>        -0.0011
     31 C24        -1.1920  -16.9995   -4.7787 C.2       1 <0>        -0.0848
     32 C25        -0.3765  -17.8593   -5.5536 C.ar      1 <0>        -0.1255
     33 C26        -0.6336  -19.0214   -6.2927 C.ar      1 <0>        -0.0561
     34 C27         0.3850  -19.6461   -6.9513 C.ar      1 <0>        -0.1466
     35 C28         1.6781  -19.1409   -6.8962 C.ar      1 <0>        -0.0777
     36 C29         1.9562  -18.0007   -6.1763 C.ar      1 <0>        -0.1374
     37 C30         0.9335  -17.3448   -5.4966 C.ar      1 <0>         0.1212
     38 N6          0.8967  -16.2125   -4.7175 N.pl3     1 <0>        -0.5811
     39 H1          1.6563  -15.6472   -4.5066 H         1 <0>         0.4167
     40 C31        -2.2497  -11.3632    2.8607 C.ar      1 <0>         0.5224
     41 N7         -2.7015  -11.1834    4.0982 N.ar      1 <0>        -0.6003
     42 C32        -2.9688   -9.9741    4.5580 C.ar      1 <0>         0.3940
     43 N8         -2.8081   -8.8876    3.8348 N.ar      1 <0>        -0.5818
     44 N9         -1.9723  -12.6303    2.3853 N.pl3     1 <0>        -0.8228
     45 H2         -1.3465    2.1381   -0.4557 H         1 <0>         0.0843
     46 H3         -3.0398    1.9867   -0.9832 H         1 <0>         0.0840
     47 H4         -2.6402    1.9395    0.7507 H         1 <0>         0.0397
     48 H5         -3.8276   -0.2508    0.8596 H         1 <0>         0.0606
     49 H6         -4.1483   -0.1248   -0.8872 H         1 <0>         0.1239
     50 H7         -4.2022   -2.4903   -0.1259 H         1 <0>         0.1375
     51 H8         -2.8750   -2.2105   -1.2785 H         1 <0>         0.1381
     52 H9         -0.2683   -2.1457    1.2405 H         1 <0>         0.1372
     53 H10        -0.6275   -2.0136   -0.4978 H         1 <0>         0.1379
     54 H11        -0.2086    0.2203    0.4812 H         1 <0>         0.1237
     55 H12        -1.5122   -0.0480    1.6638 H         1 <0>         0.0606
     56 H13        -1.7420   -4.1437   -0.4044 H         1 <0>         0.1415
     57 H14        -3.8204   -4.3646    1.8201 H         1 <0>         0.0917
     58 H15        -4.1717   -4.2537    0.0787 H         1 <0>         0.0966
     59 H16        -4.2327   -6.6093    0.8506 H         1 <0>         0.0907
     60 H17        -2.9079   -6.3514   -0.3099 H         1 <0>         0.0898
     61 H18        -2.6336   -6.3661    2.7301 H         1 <0>         0.1149
     62 H19        -0.2040   -6.2561    2.2470 H         1 <0>         0.0901
     63 H20        -0.5553   -6.1452    0.5056 H         1 <0>         0.0891
     64 H21        -0.1430   -3.9005    1.4751 H         1 <0>         0.0962
     65 H22        -1.4677   -4.1584    2.6356 H         1 <0>         0.0918
     66 H23        -2.7887  -12.3800    0.1882 H         1 <0>         0.1397
     67 H24        -2.0759  -14.1068   -1.4093 H         1 <0>         0.1727
     68 H25         0.5368   -9.9365   -0.9697 H         1 <0>         0.1394
     69 H26         3.0525  -10.3847   -3.2032 H         1 <0>         0.1057
     70 H27         1.5300   -9.5706   -2.7700 H         1 <0>         0.0579
     71 H28         2.5242  -10.3307   -1.5043 H         1 <0>         0.0580
     72 H29         0.9481  -14.0031   -3.3162 H         1 <0>         0.4142
     73 H30        -2.2536  -17.1074   -4.6123 H         1 <0>         0.1595
     74 H31        -1.6355  -19.4219   -6.3407 H         1 <0>         0.1286
     75 H32         0.1844  -20.5418   -7.5203 H         1 <0>         0.1282
     76 H33         2.4731  -19.6478   -7.4230 H         1 <0>         0.1308
     77 H34         2.9646  -17.6159   -6.1397 H         1 <0>         0.1245
     78 H35        -3.3339   -9.8737    5.5694 H         1 <0>         0.2073
     79 H36        -1.4641  -12.7406    1.5665 H         1 <0>         0.4157
     80 H37        -2.2859  -13.4097    2.8703 H         1 <0>         0.4144
     81 H38        -2.6207   -2.2353    1.6460 H         1 <0>         0.4187
@<TRIPOS>BOND
     1    1    2 1
     2    1   45 1
     3    1   46 1
     4    1   47 1
     5    2    7 1
     6    2    3 1
     7    3    4 1
     8    3   48 1
     9    3   49 1
    10    4    5 1
    11    4   50 1
    12    4   51 1
    13    5    6 1
    14    5    8 1
    15    5   81 1
    16    6    7 1
    17    6   52 1
    18    6   53 1
    19    7   54 1
    20    7   55 1
    21    8   13 1
    22    8    9 1
    23    8   56 1
    24    9   10 1
    25    9   57 1
    26    9   58 1
    27   10   11 1
    28   10   59 1
    29   10   60 1
    30   11   12 1
    31   11   14 1
    32   11   61 1
    33   12   13 1
    34   12   62 1
    35   12   63 1
    36   13   64 1
    37   13   65 1
    38   14   18 1
    39   14   15 1
    40   15   43 ar
    41   15   16 ar
    42   16   17 1
    43   16   40 ar
    44   17   18 2
    45   17   19 1
    46   19   24 ar
    47   19   20 ar
    48   20   21 ar
    49   20   66 1
    50   21   22 ar
    51   21   67 1
    52   22   23 ar
    53   22   27 1
    54   23   24 ar
    55   23   25 1
    56   24   68 1
    57   25   26 1
    58   26   69 1
    59   26   70 1
    60   26   71 1
    61   27   28 am
    62   27   72 1
    63   28   29 2
    64   28   30 1
    65   30   38 1
    66   30   31 2
    67   31   32 1
    68   31   73 1
    69   32   37 ar
    70   32   33 ar
    71   33   34 ar
    72   33   74 1
    73   34   35 ar
    74   34   75 1
    75   35   36 ar
    76   35   76 1
    77   36   37 ar
    78   36   77 1
    79   37   38 1
    80   38   39 1
    81   40   41 ar
    82   40   44 1
    83   41   42 ar
    84   42   43 ar
    85   42   78 1
    86   44   79 1
    87   44   80 1
@<TRIPOS>MOLECULE
CHEMBL261174
   72    77     0     0     0
SMALL
USER_CHARGES

@<TRIPOS>ATOM
      1 C1          0.4333    1.8452   -0.0965 C.3       1 <0>        -0.1158
      2 C2          0.2320    0.3529   -0.1550 C.ar      1 <0>        -0.0494
      3 C3          0.2375   -0.2982   -1.3730 C.ar      1 <0>        -0.1187
      4 C4          0.0529   -1.6676   -1.4275 C.ar      1 <0>        -0.0886
      5 C5         -0.1373   -2.3895   -0.2635 C.ar      1 <0>        -0.1188
      6 C6         -0.1433   -1.7443    0.9577 C.ar      1 <0>        -0.0495
      7 C7          0.0466   -0.3699    1.0162 C.ar      1 <0>         0.1134
      8 N1          0.0458    0.2865    2.2531 N.am      1 <0>        -0.4632
      9 C8          1.2076    0.4418    2.9202 C.2       1 <0>         0.5875
     10 O1          2.2503    0.0187    2.4578 O.2       1 <0>        -0.4748
     11 C9          1.1882    1.1324    4.2154 C.ar      1 <0>        -0.3304
     12 C10         2.3448    1.3346    4.9681 C.ar      1 <0>         0.2967
     13 N2          2.2400    1.9668    6.1250 N.ar      1 <0>        -0.5667
     14 C11         1.0651    2.4015    6.5657 C.ar      1 <0>         0.6144
     15 N3         -0.0588    2.2302    5.8818 N.ar      1 <0>        -0.5803
     16 C12        -0.0417    1.6071    4.7138 C.ar      1 <0>         0.4897
     17 N4         -1.1919    1.4111    3.9728 N.pl3     1 <0>        -0.4382
     18 C13        -1.1461    0.7683    2.7649 C.2       1 <0>         0.5195
     19 N5         -2.3580    0.7127    2.2560 N.2       1 <0>        -0.4653
     20 C14        -3.2404    1.3131    3.0937 C.ar      1 <0>         0.0832
     21 C15        -2.5131    1.7623    4.2079 C.ar      1 <0>         0.0494
     22 C16        -3.1631    2.4209    5.2399 C.ar      1 <0>        -0.0819
     23 C17        -4.5271    2.6207    5.1755 C.ar      1 <0>        -0.1044
     24 C18        -5.2528    2.1663    4.0847 C.ar      1 <0>        -0.1046
     25 C19        -4.6200    1.5290    3.0406 C.ar      1 <0>        -0.0682
     26 N6          1.0111    3.0551    7.7804 N.pl3     1 <0>        -0.6205
     27 C20         2.1938    3.3532    8.4682 C.ar      1 <0>         0.1287
     28 C21         3.3478    3.6670    7.7623 C.ar      1 <0>        -0.0665
     29 C22         4.5137    3.9608    8.4414 C.ar      1 <0>        -0.1228
     30 C23         4.5326    3.9420    9.8283 C.ar      1 <0>         0.1098
     31 C24         3.3803    3.6287   10.5342 C.ar      1 <0>        -0.1853
     32 C25         2.2119    3.3407    9.8567 C.ar      1 <0>        -0.1004
     33 O2          5.6814    4.2306   10.4963 O.3       1 <0>        -0.3124
     34 C26         5.6288    4.1925   11.9238 C.3       1 <0>         0.0624
     35 C27         7.0048    4.5420   12.4943 C.3       1 <0>        -0.1520
     36 C28         6.9485    4.5012   14.0227 C.3       1 <0>        -0.0073
     37 N7          8.2696    4.8368   14.5705 N.4       1 <0>        -0.3860
     38 C29         8.1870    4.9150   16.0351 C.3       1 <0>        -0.0474
     39 C30         9.2360    3.7981   14.1893 C.3       1 <0>        -0.0546
     40 C31        -0.3505   -2.5318    2.2258 C.3       1 <0>        -0.1157
     41 H1          1.4972    2.0652   -0.0080 H         1 <0>         0.0757
     42 H2          0.0427    2.3005   -1.0066 H         1 <0>         0.0777
     43 H3         -0.0944    2.2494    0.7673 H         1 <0>         0.0554
     44 H4          0.3857    0.2628   -2.2839 H         1 <0>         0.1328
     45 H5          0.0568   -2.1743   -2.3813 H         1 <0>         0.1323
     46 H6         -0.2815   -3.4588   -0.3093 H         1 <0>         0.1327
     47 H7          3.3029    0.9830    4.6149 H         1 <0>         0.2006
     48 H8         -2.6036    2.7765    6.0925 H         1 <0>         0.1348
     49 H9         -5.0327    3.1339    5.9801 H         1 <0>         0.1375
     50 H10        -6.3199    2.3280    4.0461 H         1 <0>         0.1391
     51 H11        -5.1909    1.1804    2.1927 H         1 <0>         0.1401
     52 H12         0.1539    3.3080    8.1574 H         1 <0>         0.4293
     53 H13         3.3334    3.6810    6.6825 H         1 <0>         0.1459
     54 H14         5.4113    4.2049    7.8926 H         1 <0>         0.1382
     55 H15         3.3959    3.6139   11.6140 H         1 <0>         0.1305
     56 H16         1.3136    3.1015   10.4065 H         1 <0>         0.1329
     57 H17         4.8939    4.9145   12.2797 H         1 <0>         0.0724
     58 H18         5.3434    3.1925   12.2503 H         1 <0>         0.0721
     59 H19         7.7397    3.8200   12.1384 H         1 <0>         0.0998
     60 H20         7.2902    5.5420   12.1678 H         1 <0>         0.0995
     61 H21         6.2136    5.2232   14.3786 H         1 <0>         0.1349
     62 H22         6.6632    3.5012   14.3493 H         1 <0>         0.1337
     63 H23         7.8625    3.9534   16.4325 H         1 <0>         0.1228
     64 H24         9.1673    5.1640   16.4415 H         1 <0>         0.1264
     65 H25         7.4700    5.6857   16.3179 H         1 <0>         0.1243
     66 H26         8.9115    2.8365   14.5868 H         1 <0>         0.1235
     67 H27         9.2973    3.7401   13.1026 H         1 <0>         0.1258
     68 H28        10.2163    4.0471   14.5957 H         1 <0>         0.1265
     69 H29         0.6145   -2.8616    2.6105 H         1 <0>         0.0754
     70 H30        -0.8418   -1.9026    2.9680 H         1 <0>         0.0554
     71 H31        -0.9743   -3.4007    2.0160 H         1 <0>         0.0776
     72 H32         8.5701    5.7270   14.2025 H         1 <0>         0.4289
@<TRIPOS>BOND
     1    1    2 1
     2    1   41 1
     3    1   42 1
     4    1   43 1
     5    2    7 ar
     6    2    3 ar
     7    3    4 ar
     8    3   44 1
     9    4    5 ar
    10    4   45 1
    11    5    6 ar
    12    5   46 1
    13    6    7 ar
    14    6   40 1
    15    7    8 1
    16    8   18 1
    17    8    9 am
    18    9   10 2
    19    9   11 1
    20   11   16 ar
    21   11   12 ar
    22   12   13 ar
    23   12   47 1
    24   13   14 ar
    25   14   15 ar
    26   14   26 1
    27   15   16 ar
    28   16   17 1
    29   17   21 1
    30   17   18 1
    31   18   19 2
    32   19   20 1
    33   20   25 ar
    34   20   21 ar
    35   21   22 ar
    36   22   23 ar
    37   22   48 1
    38   23   24 ar
    39   23   49 1
    40   24   25 ar
    41   24   50 1
    42   25   51 1
    43   26   27 1
    44   26   52 1
    45   27   32 ar
    46   27   28 ar
    47   28   29 ar
    48   28   53 1
    49   29   30 ar
    50   29   54 1
    51   30   31 ar
    52   30   33 1
    53   31   32 ar
    54   31   55 1
    55   32   56 1
    56   33   34 1
    57   34   35 1
    58   34   57 1
    59   34   58 1
    60   35   36 1
    61   35   59 1
    62   35   60 1
    63   36   37 1
    64   36   61 1
    65   36   62 1
    66   37   38 1
    67   37   39 1
    68   37   72 1
    69   38   63 1
    70   38   64 1
    71   38   65 1
    72   39   66 1
    73   39   67 1
    74   39   68 1
    75   40   69 1
    76   40   70 1
    77   40   71 1
@<TRIPOS>MOLECULE
CHEMBL941
   69    73     0     0     0
SMALL
USER_CHARGES

@<TRIPOS>ATOM
      1 C1         -0.1643    1.5374    0.2772 C.3       1 <0>        -0.1166
      2 C2          0.0708    0.1281   -0.2021 C.ar      1 <0>        -0.1228
      3 C3         -0.6192   -0.3521   -1.2987 C.ar      1 <0>        -0.0806
      4 C4         -0.4070   -1.6434   -1.7410 C.ar      1 <0>        -0.1294
      5 C5          0.5017   -2.4641   -1.0837 C.ar      1 <0>         0.1504
      6 C6          1.1965   -1.9850    0.0175 C.ar      1 <0>        -0.1394
      7 C7          0.9852   -0.6852    0.4558 C.ar      1 <0>         0.1826
      8 N1          1.6874   -0.1967    1.5617 N.pl3     1 <0>        -0.6314
      9 C8          2.1285   -1.0695    2.5429 C.ar      1 <0>         0.5659
     10 N2          1.7764   -2.3456    2.4776 N.ar      1 <0>        -0.5577
     11 C9          2.1776   -3.2107    3.3953 C.ar      1 <0>         0.1910
     12 C10         2.9764   -2.7714    4.4364 C.ar      1 <0>        -0.2706
     13 C11         3.3313   -1.4207    4.4789 C.ar      1 <0>         0.2697
     14 N3          2.8950   -0.6087    3.5185 N.ar      1 <0>        -0.5576
     15 C12         4.1856   -0.9008    5.5740 C.ar      1 <0>        -0.1200
     16 C13         4.4510    0.4679    5.6793 C.ar      1 <0>        -0.0267
     17 C14         5.2541    0.9026    6.7193 C.ar      1 <0>        -0.1772
     18 C15         5.7636   -0.0222    7.6129 C.ar      1 <0>         0.1192
     19 N4          5.4957   -1.3077    7.4879 N.ar      1 <0>        -0.4844
     20 C16         4.7320   -1.7677    6.5181 C.ar      1 <0>         0.1336
     21 N5          0.7153   -3.7716   -1.5315 N.am      1 <0>        -0.6649
     22 C17         0.7404   -4.0356   -2.8529 C.2       1 <0>         0.5545
     23 O1          0.4912   -3.1555   -3.6535 O.2       1 <0>        -0.5086
     24 C18         1.0709   -5.3955   -3.3287 C.ar      1 <0>        -0.1216
     25 C19         1.3519   -6.4100   -2.4119 C.ar      1 <0>        -0.0841
     26 C20         1.6592   -7.6771   -2.8626 C.ar      1 <0>        -0.1244
     27 C21         1.6892   -7.9435   -4.2200 C.ar      1 <0>        -0.0692
     28 C22         1.4117   -6.9425   -5.1341 C.ar      1 <0>        -0.0994
     29 C23         1.0978   -5.6724   -4.6966 C.ar      1 <0>        -0.0536
     30 C24         2.0262   -9.3299   -4.7050 C.3       1 <0>         0.0939
     31 N6          0.7933  -10.1196   -4.8258 N.3       1 <0>        -0.5345
     32 C25         0.1866  -10.3538   -3.5078 C.3       1 <0>         0.0185
     33 C26        -1.1228  -11.1262   -3.6823 C.3       1 <0>        -0.0025
     34 N7         -0.8513  -12.4061   -4.3498 N.4       1 <0>        -0.3884
     35 C27        -0.2685  -12.1554   -5.6746 C.3       1 <0>        -0.0024
     36 C28         1.0481  -11.3916   -5.5166 C.3       1 <0>         0.0250
     37 C29        -2.1059  -13.1551   -4.5009 C.3       1 <0>        -0.0460
     38 H1          0.5251    2.2130   -0.2290 H         1 <0>         0.0728
     39 H2         -1.1901    1.8307    0.0540 H         1 <0>         0.0743
     40 H3          0.0021    1.5877    1.3533 H         1 <0>         0.0627
     41 H4         -1.3262    0.2836   -1.8111 H         1 <0>         0.1320
     42 H5         -0.9481   -2.0158   -2.5982 H         1 <0>         0.1349
     43 H6          1.9030   -2.6209    0.5302 H         1 <0>         0.1479
     44 H7          1.8658    0.7534    1.6418 H         1 <0>         0.4260
     45 H8          1.8844   -4.2483    3.3325 H         1 <0>         0.1734
     46 H9          3.3172   -3.4566    5.1985 H         1 <0>         0.1507
     47 H10         4.0401    1.1680    4.9670 H         1 <0>         0.1466
     48 H11         5.4807    1.9525    6.8318 H         1 <0>         0.1437
     49 H12         6.3909    0.3135    8.4254 H         1 <0>         0.1633
     50 H13         4.5316   -2.8268    6.4514 H         1 <0>         0.1617
     51 H14         0.8453   -4.4884   -0.8911 H         1 <0>         0.4084
     52 H15         1.3291   -6.2032   -1.3521 H         1 <0>         0.1294
     53 H16         1.8771   -8.4627   -2.1544 H         1 <0>         0.1265
     54 H17         1.4372   -7.1570   -6.1922 H         1 <0>         0.1340
     55 H18         0.8770   -4.8931   -5.4110 H         1 <0>         0.1424
     56 H19         2.5135   -9.2661   -5.6779 H         1 <0>         0.1008
     57 H20         2.6973   -9.8107   -3.9933 H         1 <0>         0.0595
     58 H21         0.8718  -10.9344   -2.8900 H         1 <0>         0.0618
     59 H22        -0.0167   -9.3975   -3.0259 H         1 <0>         0.1265
     60 H23        -1.5673  -11.3133   -2.7048 H         1 <0>         0.1359
     61 H24        -1.8127  -10.5393   -4.2887 H         1 <0>         0.1379
     62 H25        -0.0795  -13.1056   -6.1741 H         1 <0>         0.1367
     63 H26        -0.9627  -11.5633   -6.2708 H         1 <0>         0.1381
     64 H27         1.4733  -11.1924   -6.5003 H         1 <0>         0.1253
     65 H28         1.7474  -11.9892   -4.9320 H         1 <0>         0.0621
     66 H29        -2.8061  -12.5737   -5.1008 H         1 <0>         0.1233
     67 H30        -1.9046  -14.1049   -4.9963 H         1 <0>         0.1246
     68 H31        -2.5379  -13.3423   -3.5179 H         1 <0>         0.1243
     69 H32        -0.2036  -12.9443   -3.7940 H         1 <0>         0.4222
@<TRIPOS>BOND
     1    1    2 1
     2    1   38 1
     3    1   39 1
     4    1   40 1
     5    2    7 ar
     6    2    3 ar
     7    3    4 ar
     8    3   41 1
     9    4    5 ar
    10    4   42 1
    11    5    6 ar
    12    5   21 1
    13    6    7 ar
    14    6   43 1
    15    7    8 1
    16    8    9 1
    17    8   44 1
    18    9   14 ar
    19    9   10 ar
    20   10   11 ar
    21   11   12 ar
    22   11   45 1
    23   12   13 ar
    24   12   46 1
    25   13   14 ar
    26   13   15 1
    27   15   20 ar
    28   15   16 ar
    29   16   17 ar
    30   16   47 1
    31   17   18 ar
    32   17   48 1
    33   18   19 ar
    34   18   49 1
    35   19   20 ar
    36   20   50 1
    37   21   22 am
    38   21   51 1
    39   22   23 2
    40   22   24 1
    41   24   29 ar
    42   24   25 ar
    43   25   26 ar
    44   25   52 1
    45   26   27 ar
    46   26   53 1
    47   27   28 ar
    48   27   30 1
    49   28   29 ar
    50   28   54 1
    51   29   55 1
    52   30   31 1
    53   30   56 1
    54   30   57 1
    55   31   36 1
    56   31   32 1
    57   32   33 1
    58   32   58 1
    59   32   59 1
    60   33   34 1
    61   33   60 1
    62   33   61 1
    63   34   35 1
    64   34   37 1
    65   34   69 1
    66   35   36 1
    67   35   62 1
    68   35   63 1
    69   36   64 1
    70   36   65 1
    71   37   66 1
    72   37   67 1
    73   37   68 1
@<TRIPOS>MOLECULE
CHEMBL941__1
   69    73     0     0     0
SMALL
USER_CHARGES

@<TRIPOS>ATOM
      1 C1         -0.1643    1.5374    0.2772 C.3       1 <0>        -0.1179
      2 C2          0.0708    0.1281   -0.2021 C.ar      1 <0>        -0.1195
      3 C3         -0.6192   -0.3521   -1.2987 C.ar      1 <0>        -0.0803
      4 C4         -0.4070   -1.6434   -1.7410 C.ar      1 <0>        -0.1287
      5 C5          0.5017   -2.4641   -1.0837 C.ar      1 <0>         0.1452
      6 C6          1.1965   -1.9850    0.0175 C.ar      1 <0>        -0.1374
      7 C7          0.9852   -0.6852    0.4558 C.ar      1 <0>         0.1839
      8 N1          1.6874   -0.1967    1.5617 N.pl3     1 <0>        -0.6318
      9 C8          2.1285   -1.0695    2.5429 C.ar      1 <0>         0.5654
     10 N2          1.7764   -2.3456    2.4776 N.ar      1 <0>        -0.5590
     11 C9          2.1776   -3.2107    3.3953 C.ar      1 <0>         0.1907
     12 C10         2.9764   -2.7714    4.4364 C.ar      1 <0>        -0.2695
     13 C11         3.3313   -1.4207    4.4789 C.ar      1 <0>         0.2707
     14 N3          2.8950   -0.6087    3.5185 N.ar      1 <0>        -0.5571
     15 C12         4.1856   -0.9008    5.5740 C.ar      1 <0>        -0.1213
     16 C13         4.4510    0.4679    5.6793 C.ar      1 <0>        -0.0264
     17 C14         5.2541    0.9026    6.7193 C.ar      1 <0>        -0.1772
     18 C15         5.7636   -0.0222    7.6129 C.ar      1 <0>         0.1201
     19 N4          5.4957   -1.3077    7.4879 N.ar      1 <0>        -0.4842
     20 C16         4.7320   -1.7677    6.5181 C.ar      1 <0>         0.1342
     21 N5          0.7153   -3.7716   -1.5315 N.am      1 <0>        -0.6603
     22 C17         0.7404   -4.0356   -2.8529 C.2       1 <0>         0.5491
     23 O1          0.4912   -3.1555   -3.6535 O.2       1 <0>        -0.5015
     24 C18         1.0709   -5.3955   -3.3287 C.ar      1 <0>        -0.0938
     25 C19         1.3519   -6.4100   -2.4119 C.ar      1 <0>        -0.0834
     26 C20         1.6592   -7.6771   -2.8626 C.ar      1 <0>        -0.1009
     27 C21         1.6892   -7.9435   -4.2200 C.ar      1 <0>        -0.1382
     28 C22         1.4117   -6.9425   -5.1341 C.ar      1 <0>        -0.0966
     29 C23         1.0978   -5.6724   -4.6966 C.ar      1 <0>        -0.0538
     30 C24         2.0262   -9.3299   -4.7050 C.3       1 <0>         0.0425
     31 N6          0.7933  -10.1196   -4.8258 N.4       1 <0>        -0.3856
     32 C25         0.1989  -10.3052   -3.4955 C.3       1 <0>        -0.0078
     33 C26        -1.0954  -11.1117   -3.6230 C.3       1 <0>         0.0256
     34 N7         -0.7986  -12.4159   -4.2323 N.3       1 <0>        -0.5431
     35 C27        -0.1799  -12.2456   -5.5546 C.3       1 <0>         0.0239
     36 C28         1.1068  -11.4297   -5.4112 C.3       1 <0>        -0.0024
     37 C29        -2.0090  -13.2436   -4.3201 C.3       1 <0>         0.0192
     38 H1          0.5251    2.2130   -0.2290 H         1 <0>         0.0738
     39 H2         -1.1901    1.8307    0.0540 H         1 <0>         0.0752
     40 H3          0.0021    1.5877    1.3533 H         1 <0>         0.0636
     41 H4         -1.3262    0.2836   -1.8111 H         1 <0>         0.1330
     42 H5         -0.9481   -2.0158   -2.5982 H         1 <0>         0.1345
     43 H6          1.9030   -2.6209    0.5302 H         1 <0>         0.1487
     44 H7          1.8658    0.7534    1.6418 H         1 <0>         0.4265
     45 H8          1.8844   -4.2483    3.3325 H         1 <0>         0.1737
     46 H9          3.3172   -3.4566    5.1985 H         1 <0>         0.1513
     47 H10         4.0401    1.1680    4.9670 H         1 <0>         0.1465
     48 H11         5.4807    1.9525    6.8318 H         1 <0>         0.1439
     49 H12         6.3909    0.3135    8.4254 H         1 <0>         0.1636
     50 H13         4.5316   -2.8268    6.4514 H         1 <0>         0.1618
     51 H14         0.8453   -4.4884   -0.8911 H         1 <0>         0.4091
     52 H15         1.3291   -6.2032   -1.3521 H         1 <0>         0.1399
     53 H16         1.8771   -8.4627   -2.1544 H         1 <0>         0.1405
     54 H17         1.4372   -7.1570   -6.1922 H         1 <0>         0.1409
     55 H18         0.8770   -4.8931   -5.4110 H         1 <0>         0.1513
     56 H19         2.5135   -9.2661   -5.6779 H         1 <0>         0.1411
     57 H20         2.6973   -9.8107   -3.9933 H         1 <0>         0.1402
     58 H21         0.8998  -10.8418   -2.8560 H         1 <0>         0.1385
     59 H22        -0.0212   -9.3320   -3.0568 H         1 <0>         0.1352
     60 H23        -1.5289  -11.2624   -2.6343 H         1 <0>         0.1235
     61 H24        -1.8016  -10.5690   -4.2513 H         1 <0>         0.0601
     62 H25         0.0544  -13.2235   -5.9751 H         1 <0>         0.1247
     63 H26        -0.8711  -11.7216   -6.2147 H         1 <0>         0.0606
     64 H27         1.5598  -11.2902   -6.3927 H         1 <0>         0.1372
     65 H28         1.8030  -11.9606   -4.7619 H         1 <0>         0.1392
     66 H29        -2.7542  -12.7340   -4.9308 H         1 <0>         0.0396
     67 H30        -1.7610  -14.2028   -4.7745 H         1 <0>         0.0842
     68 H31        -2.4099  -13.4082   -3.3199 H         1 <0>         0.0844
     69 H32         0.1396   -9.6332   -5.4209 H         1 <0>         0.4206
@<TRIPOS>BOND
     1    1    2 1
     2    1   38 1
     3    1   39 1
     4    1   40 1
     5    2    7 ar
     6    2    3 ar
     7    3    4 ar
     8    3   41 1
     9    4    5 ar
    10    4   42 1
    11    5    6 ar
    12    5   21 1
    13    6    7 ar
    14    6   43 1
    15    7    8 1
    16    8    9 1
    17    8   44 1
    18    9   14 ar
    19    9   10 ar
    20   10   11 ar
    21   11   12 ar
    22   11   45 1
    23   12   13 ar
    24   12   46 1
    25   13   14 ar
    26   13   15 1
    27   15   20 ar
    28   15   16 ar
    29   16   17 ar
    30   16   47 1
    31   17   18 ar
    32   17   48 1
    33   18   19 ar
    34   18   49 1
    35   19   20 ar
    36   20   50 1
    37   21   22 am
    38   21   51 1
    39   22   23 2
    40   22   24 1
    41   24   29 ar
    42   24   25 ar
    43   25   26 ar
    44   25   52 1
    45   26   27 ar
    46   26   53 1
    47   27   28 ar
    48   27   30 1
    49   28   29 ar
    50   28   54 1
    51   29   55 1
    52   30   31 1
    53   30   56 1
    54   30   57 1
    55   31   36 1
    56   31   32 1
    57   31   69 1
    58   32   33 1
    59   32   58 1
    60   32   59 1
    61   33   34 1
    62   33   60 1
    63   33   61 1
    64   34   35 1
    65   34   37 1
    66   35   36 1
    67   35   62 1
    68   35   63 1
    69   36   64 1
    70   36   65 1
    71   37   66 1
    72   37   67 1
    73   37   68 1
@<TRIPOS>MOLECULE
CHEMBL215152
   68    71     0     0     0
SMALL
USER_CHARGES

@<TRIPOS>ATOM
      1 C1          0.1414    1.0953    0.0252 C.3       1 <0>        -0.1879
      2 C2          0.0344   -0.4077    0.2904 C.3       1 <0>        -0.0179
      3 N1         -1.3805   -0.7845    0.4095 N.4       1 <0>        -0.3831
      4 C3         -1.4799   -2.1986    0.7946 C.3       1 <0>        -0.0114
      5 C4         -0.8914   -2.3887    2.1940 C.3       1 <0>        -0.1507
      6 C5         -0.9950   -3.8615    2.5951 C.3       1 <0>         0.0609
      7 O1         -0.4452   -4.0391    3.9021 O.3       1 <0>        -0.3065
      8 C6         -0.4595   -5.2979    4.4111 C.ar      1 <0>         0.1651
      9 C7         -0.9928   -6.3439    3.6526 C.ar      1 <0>        -0.2107
     10 C8         -1.0196   -7.6158    4.1389 C.ar      1 <0>        -0.0238
     11 C9         -0.5074   -7.8823    5.4144 C.ar      1 <0>        -0.2178
     12 C10         0.0354   -6.8287    6.1913 C.ar      1 <0>         0.2289
     13 C11         0.0571   -5.5307    5.6679 C.ar      1 <0>        -0.1455
     14 N2          0.5204   -7.1100    7.4103 N.ar      1 <0>        -0.5500
     15 C12         0.4909   -8.3384    7.8707 C.ar      1 <0>         0.3626
     16 N3         -0.0056   -9.3531    7.1820 N.ar      1 <0>        -0.5775
     17 C13        -0.5106   -9.1853    5.9662 C.ar      1 <0>         0.4884
     18 N4         -1.0254  -10.2523    5.2597 N.pl3     1 <0>        -0.5978
     19 C14        -1.0192  -11.5341    5.8239 C.2       1 <0>         0.2990
     20 C15        -0.5280  -11.8736    7.0950 C.2       1 <0>        -0.2355
     21 C16        -0.7031  -13.2037    7.2657 C.2       1 <0>         0.1068
     22 N5         -1.2824  -13.6919    6.1487 N.pl3     1 <0>        -0.4559
     23 H1         -1.5251  -14.6176    5.9907 H         1 <0>         0.4419
     24 N6         -1.4765  -12.6271    5.2595 N.2       1 <0>        -0.3116
     25 C17        -0.3191  -13.9996    8.4864 C.3       1 <0>        -0.0770
     26 C18        -1.4265  -13.9219    9.5056 C.2       1 <0>         0.5143
     27 O2         -2.4289  -13.2831    9.2644 O.2       1 <0>        -0.5002
     28 N7         -1.3030  -14.5622   10.6851 N.am      1 <0>        -0.6720
     29 C19        -2.2828  -14.4064   11.6717 C.ar      1 <0>         0.1711
     30 C20        -1.9219  -14.3818   13.0129 C.ar      1 <0>        -0.1532
     31 C21        -2.8902  -14.2274   13.9854 C.ar      1 <0>        -0.0700
     32 C22        -4.2191  -14.0976   13.6262 C.ar      1 <0>        -0.1667
     33 C23        -4.5833  -14.1215   12.2902 C.ar      1 <0>         0.1178
     34 C24        -3.6165  -14.2702   11.3118 C.ar      1 <0>        -0.1591
     35 F1         -5.8825  -13.9949   11.9421 F         1 <0>        -0.1354
     36 C25        -2.0519   -0.5800   -0.8810 C.3       1 <0>        -0.0098
     37 C26        -3.5535   -0.8247   -0.7191 C.3       1 <0>         0.0446
     38 O3         -4.1050    0.1610    0.1562 O.3       1 <0>        -0.5793
     39 H2          1.1903    1.3917    0.0323 H         1 <0>         0.1072
     40 H3         -0.2944    1.3246   -0.9472 H         1 <0>         0.0804
     41 H4         -0.3955    1.6404    0.8016 H         1 <0>         0.0817
     42 H5          0.4880   -0.9556   -0.5355 H         1 <0>         0.1307
     43 H6          0.5544   -0.6511    1.2170 H         1 <0>         0.1338
     44 H7         -2.5269   -2.5019    0.7965 H         1 <0>         0.1336
     45 H8         -0.9261   -2.8092    0.0814 H         1 <0>         0.1348
     46 H9          0.1556   -2.0854    2.1921 H         1 <0>         0.1011
     47 H10        -1.4452   -1.7781    2.9071 H         1 <0>         0.1012
     48 H11        -2.0419   -4.1648    2.5970 H         1 <0>         0.0752
     49 H12        -0.4411   -4.4721    1.8820 H         1 <0>         0.0757
     50 H13        -1.3888   -6.1408    2.6686 H         1 <0>         0.1349
     51 H14        -1.4346   -8.4154    3.5432 H         1 <0>         0.1334
     52 H15         0.4712   -4.7175    6.2456 H         1 <0>         0.1508
     53 H16         0.8901   -8.5298    8.8558 H         1 <0>         0.2027
     54 H17        -1.3916  -10.1149    4.3721 H         1 <0>         0.4252
     55 H18        -0.0885  -11.1933    7.8093 H         1 <0>         0.1852
     56 H19        -0.1563  -15.0401    8.2054 H         1 <0>         0.1142
     57 H20         0.5968  -13.5910    8.9133 H         1 <0>         0.1312
     58 H21        -0.5348  -15.1312   10.8499 H         1 <0>         0.4166
     59 H22        -0.8844  -14.4838   13.2950 H         1 <0>         0.1350
     60 H23        -2.6091  -14.2084   15.0280 H         1 <0>         0.1399
     61 H24        -4.9744  -13.9777   14.3888 H         1 <0>         0.1383
     62 H25        -3.8995  -14.2849   10.2696 H         1 <0>         0.1494
     63 H26        -1.8848    0.4425   -1.2196 H         1 <0>         0.1421
     64 H27        -1.6474   -1.2765   -1.6154 H         1 <0>         0.1431
     65 H28        -4.0394   -0.7588   -1.6926 H         1 <0>         0.0960
     66 H29        -3.7166   -1.8167   -0.2980 H         1 <0>         0.0707
     67 H30        -5.0389    0.0226    0.3657 H         1 <0>         0.4093
     68 H31        -1.8228   -0.2123    1.1131 H         1 <0>         0.4316
@<TRIPOS>BOND
     1    1    2 1
     2    1   39 1
     3    1   40 1
     4    1   41 1
     5    2    3 1
     6    2   42 1
     7    2   43 1
     8    3    4 1
     9    3   36 1
    10    3   68 1
    11    4    5 1
    12    4   44 1
    13    4   45 1
    14    5    6 1
    15    5   46 1
    16    5   47 1
    17    6    7 1
    18    6   48 1
    19    6   49 1
    20    7    8 1
    21    8   13 ar
    22    8    9 ar
    23    9   10 ar
    24    9   50 1
    25   10   11 ar
    26   10   51 1
    27   11   17 ar
    28   11   12 ar
    29   12   13 ar
    30   12   14 ar
    31   13   52 1
    32   14   15 ar
    33   15   16 ar
    34   15   53 1
    35   16   17 ar
    36   17   18 1
    37   18   19 1
    38   18   54 1
    39   19   24 2
    40   19   20 1
    41   20   21 2
    42   20   55 1
    43   21   22 1
    44   21   25 1
    45   22   23 1
    46   22   24 1
    47   25   26 1
    48   25   56 1
    49   25   57 1
    50   26   27 2
    51   26   28 am
    52   28   29 1
    53   28   58 1
    54   29   34 ar
    55   29   30 ar
    56   30   31 ar
    57   30   59 1
    58   31   32 ar
    59   31   60 1
    60   32   33 ar
    61   32   61 1
    62   33   34 ar
    63   33   35 1
    64   34   62 1
    65   36   37 1
    66   36   63 1
    67   36   64 1
    68   37   38 1
    69   37   65 1
    70   37   66 1
    71   38   67 1
@<TRIPOS>MOLECULE
CHEMBL215152__1
   68    71     0     0     0
SMALL
USER_CHARGES

@<TRIPOS>ATOM
      1 C1          0.1011    1.0878    0.0676 C.3       1 <0>        -0.1880
      2 C2          0.0006   -0.4166    0.3272 C.3       1 <0>        -0.0178
      3 N1         -1.4126   -0.7998    0.4454 N.4       1 <0>        -0.3831
      4 C3         -1.5059   -2.2158    0.8252 C.3       1 <0>        -0.0113
      5 C4         -0.9160   -2.4086    2.2237 C.3       1 <0>        -0.1510
      6 C5         -1.0132   -3.8834    2.6192 C.3       1 <0>         0.0609
      7 O1         -0.4622   -4.0635    3.9254 O.3       1 <0>        -0.3058
      8 C6         -0.4710   -5.3243    4.4297 C.ar      1 <0>         0.1652
      9 C7         -1.0001   -6.3697    3.6674 C.ar      1 <0>        -0.2079
     10 C8         -1.0214   -7.6436    4.1489 C.ar      1 <0>        -0.0271
     11 C9         -0.5075   -7.9127    5.4232 C.ar      1 <0>        -0.2157
     12 C10         0.0311   -6.8597    6.2038 C.ar      1 <0>         0.2279
     13 C11         0.0472   -5.5597    5.6854 C.ar      1 <0>        -0.1434
     14 N2          0.5178   -7.1436    7.4216 N.ar      1 <0>        -0.5462
     15 C12         0.4937   -8.3739    7.8773 C.ar      1 <0>         0.3627
     16 N3          0.0012   -9.3880    7.1850 N.ar      1 <0>        -0.5729
     17 C13        -0.5050   -9.2177    5.9701 C.ar      1 <0>         0.4842
     18 N4         -1.0157  -10.2845    5.2595 N.pl3     1 <0>        -0.6134
     19 C14        -1.0039  -11.5617    5.8160 C.2       1 <0>         0.2974
     20 C15        -0.5225  -11.9010    7.0437 C.2       1 <0>        -0.2521
     21 C16        -0.7021  -13.2768    7.2090 C.2       1 <0>         0.0931
     22 N5         -1.2676  -13.7532    6.1297 N.2       1 <0>        -0.2441
     23 H1         -1.8823  -12.7610    4.3573 H         1 <0>         0.4363
     24 N6         -1.4758  -12.6953    5.2355 N.pl3     1 <0>        -0.4898
     25 C17        -0.3102  -14.0767    8.4246 C.3       1 <0>        -0.0571
     26 C18        -1.5106  -14.8279    8.9401 C.2       1 <0>         0.5153
     27 O2         -2.5792  -14.7239    8.3759 O.2       1 <0>        -0.4983
     28 N7         -1.3967  -15.6151   10.0281 N.am      1 <0>        -0.6749
     29 C19        -2.5314  -16.2303   10.5684 C.ar      1 <0>         0.1739
     30 C20        -2.6465  -16.3931   11.9431 C.ar      1 <0>        -0.1553
     31 C21        -3.7673  -17.0000   12.4747 C.ar      1 <0>        -0.0710
     32 C22        -4.7755  -17.4465   11.6405 C.ar      1 <0>        -0.1690
     33 C23        -4.6648  -17.2862   10.2693 C.ar      1 <0>         0.1172
     34 C24        -3.5466  -16.6737    9.7320 C.ar      1 <0>        -0.1593
     35 F1         -5.6512  -17.7238    9.4565 F         1 <0>        -0.1360
     36 C25        -2.0854   -0.5933   -0.8441 C.3       1 <0>        -0.0099
     37 C26        -3.5859   -0.8450   -0.6825 C.3       1 <0>         0.0446
     38 O3         -4.1413    0.1351    0.1968 O.3       1 <0>        -0.5792
     39 H2          1.1488    1.3887    0.0754 H         1 <0>         0.1074
     40 H3         -0.3360    1.3189   -0.9037 H         1 <0>         0.0805
     41 H4         -0.4377    1.6277    0.8463 H         1 <0>         0.0818
     42 H5          0.4562   -0.9595   -0.5009 H         1 <0>         0.1307
     43 H6          0.5220   -0.6613    1.2527 H         1 <0>         0.1337
     44 H7         -2.5516   -2.5235    0.8264 H         1 <0>         0.1335
     45 H8         -0.9498   -2.8213    0.1096 H         1 <0>         0.1347
     46 H9          0.1297   -2.1009    2.2225 H         1 <0>         0.1014
     47 H10        -1.4721   -1.8031    2.9393 H         1 <0>         0.1015
     48 H11        -2.0589   -4.1911    2.6204 H         1 <0>         0.0752
     49 H12        -0.4571   -4.4890    1.9036 H         1 <0>         0.0757
     50 H13        -1.3974   -6.1646    2.6843 H         1 <0>         0.1354
     51 H14        -1.4332   -8.4427    3.5504 H         1 <0>         0.1313
     52 H15         0.4581   -4.7469    6.2660 H         1 <0>         0.1520
     53 H16         0.8940   -8.5673    8.8616 H         1 <0>         0.2055
     54 H17        -1.3829  -10.1453    4.3726 H         1 <0>         0.4209
     55 H18        -0.0802  -11.2266    7.7619 H         1 <0>         0.1880
     56 H19         0.4739  -14.7848    8.1564 H         1 <0>         0.1181
     57 H20         0.0575  -13.4038    9.1993 H         1 <0>         0.1229
     58 H21        -0.5282  -15.7553   10.4366 H         1 <0>         0.4158
     59 H22        -1.8595  -16.0454   12.5960 H         1 <0>         0.1343
     60 H23        -3.8564  -17.1263   13.5436 H         1 <0>         0.1388
     61 H24        -5.6506  -17.9214   12.0588 H         1 <0>         0.1372
     62 H25        -3.4617  -16.5448    8.6631 H         1 <0>         0.1513
     63 H26        -1.9228    0.4312   -1.1788 H         1 <0>         0.1424
     64 H27        -1.6782   -1.2854   -1.5812 H         1 <0>         0.1431
     65 H28        -4.0725   -0.7775   -1.6555 H         1 <0>         0.0961
     66 H29        -3.7447   -1.8393   -0.2651 H         1 <0>         0.0704
     67 H30        -5.0744   -0.0080    0.4061 H         1 <0>         0.4093
     68 H31        -1.8571   -0.2322    1.1513 H         1 <0>         0.4316
@<TRIPOS>BOND
     1    1    2 1
     2    1   39 1
     3    1   40 1
     4    1   41 1
     5    2    3 1
     6    2   42 1
     7    2   43 1
     8    3    4 1
     9    3   36 1
    10    3   68 1
    11    4    5 1
    12    4   44 1
    13    4   45 1
    14    5    6 1
    15    5   46 1
    16    5   47 1
    17    6    7 1
    18    6   48 1
    19    6   49 1
    20    7    8 1
    21    8   13 ar
    22    8    9 ar
    23    9   10 ar
    24    9   50 1
    25   10   11 ar
    26   10   51 1
    27   11   17 ar
    28   11   12 ar
    29   12   13 ar
    30   12   14 ar
    31   13   52 1
    32   14   15 ar
    33   15   16 ar
    34   15   53 1
    35   16   17 ar
    36   17   18 1
    37   18   19 1
    38   18   54 1
    39   19   20 2
    40   19   24 1
    41   20   55 1
    42   20   21 1
    43   21   25 1
    44   21   22 2
    45   22   24 1
    46   23   24 1
    47   25   26 1
    48   25   56 1
    49   25   57 1
    50   26   27 2
    51   26   28 am
    52   28   29 1
    53   28   58 1
    54   29   34 ar
    55   29   30 ar
    56   30   31 ar
    57   30   59 1
    58   31   32 ar
    59   31   60 1
    60   32   33 ar
    61   32   61 1
    62   33   34 ar
    63   33   35 1
    64   34   62 1
    65   36   37 1
    66   36   63 1
    67   36   64 1
    68   37   38 1
    69   37   65 1
    70   37   66 1
    71   38   67 1
@<TRIPOS>MOLECULE
CHEMBL186943
   34    37     0     0     0
SMALL
USER_CHARGES

@<TRIPOS>ATOM
      1 C1          2.5177   -1.2203    1.7597 C.3       1 <0>        -0.1131
      2 C2          1.3150   -1.3346    0.8589 C.ar      1 <0>        -0.0542
      3 C3          1.4011   -2.0457   -0.3224 C.ar      1 <0>        -0.1110
      4 C4          0.2987   -2.1511   -1.1501 C.ar      1 <0>        -0.0914
      5 C5         -0.8942   -1.5454   -0.7990 C.ar      1 <0>        -0.1126
      6 C6         -0.9877   -0.8331    0.3812 C.ar      1 <0>        -0.0163
      7 C7          0.1178   -0.7303    1.2182 C.ar      1 <0>         0.1455
      8 N1          0.0256   -0.0150    2.4163 N.pl3     1 <0>        -0.6388
      9 C8         -0.3636   -0.6565    3.5748 C.2       1 <0>         0.5249
     10 C9         -0.4719    0.0924    4.8240 C.2       1 <0>        -0.0892
     11 C10        -0.2650    1.4020    5.1812 C.2       1 <0>         0.0553
     12 N2         -0.5243    1.5073    6.4864 N.2       1 <0>        -0.4674
     13 C11        -0.8807    0.3404    6.9639 C.2       1 <0>         0.2061
     14 N3         -0.8640   -0.5684    5.9746 N.pl3     1 <0>        -0.3609
     15 C12        -1.1426   -1.9272    5.9012 C.ar      1 <0>        -0.0044
     16 C13        -1.5398   -2.6287    7.0320 C.ar      1 <0>        -0.0575
     17 C14        -1.8069   -3.9835    6.9076 C.ar      1 <0>        -0.1767
     18 C15        -1.6712   -4.5917    5.6719 C.ar      1 <0>         0.1394
     19 N4         -1.2936   -3.9097    4.6118 N.ar      1 <0>        -0.4568
     20 C16        -1.0242   -2.6046    4.6759 C.ar      1 <0>         0.3588
     21 N5         -0.6428   -1.9433    3.5538 N.2       1 <0>        -0.5405
     22 Cl1        -2.4849   -0.0725    0.8213 Cl        1 <0>        -0.0594
     23 H1          2.5222   -2.0496    2.4670 H         1 <0>         0.0745
     24 H2          3.4263   -1.2507    1.1583 H         1 <0>         0.0735
     25 H3          2.4746   -0.2777    2.3054 H         1 <0>         0.0667
     26 H4          2.3310   -2.5197   -0.6000 H         1 <0>         0.1342
     27 H5          0.3692   -2.7074   -2.0731 H         1 <0>         0.1365
     28 H6         -1.7533   -1.6291   -1.4481 H         1 <0>         0.1376
     29 H7          0.2352    0.9319    2.4332 H         1 <0>         0.4253
     30 H8          0.0505    2.2006    4.5261 H         1 <0>         0.1885
     31 H9         -1.1463    0.1404    7.9915 H         1 <0>         0.2179
     32 H10        -1.6379   -2.1310    7.9855 H         1 <0>         0.1441
     33 H11        -2.1176   -4.5590    7.7671 H         1 <0>         0.1499
     34 H12        -1.8791   -5.6472    5.5758 H         1 <0>         0.1713
@<TRIPOS>BOND
     1    1    2 1
     2    1   23 1
     3    1   24 1
     4    1   25 1
     5    2    7 ar
     6    2    3 ar
     7    3    4 ar
     8    3   26 1
     9    4    5 ar
    10    4   27 1
    11    5    6 ar
    12    5   28 1
    13    6    7 ar
    14    6   22 1
    15    7    8 1
    16    8    9 1
    17    8   29 1
    18    9   21 2
    19    9   10 1
    20   10   14 1
    21   10   11 2
    22   11   12 1
    23   11   30 1
    24   12   13 2
    25   13   14 1
    26   13   31 1
    27   14   15 1
    28   15   20 ar
    29   15   16 ar
    30   16   17 ar
    31   16   32 1
    32   17   18 ar
    33   17   33 1
    34   18   19 ar
    35   18   34 1
    36   19   20 ar
    37   20   21 1
@<TRIPOS>MOLECULE
CHEMBL219584
   49    52     0     0     0
SMALL
USER_CHARGES

@<TRIPOS>ATOM
      1 C1         -0.0484    1.5024    0.0098 C.3       1 <0>        -0.1254
      2 C2         -0.0196   -0.0043    0.0016 C.ar      1 <0>        -0.0273
      3 C3         -0.0178   -0.6868   -1.1985 C.ar      1 <0>        -0.1244
      4 C4          0.0085   -2.0672   -1.2153 C.ar      1 <0>        -0.0688
      5 C5          0.0335   -2.7839   -0.0162 C.ar      1 <0>        -0.1436
      6 C6          0.0324   -2.1031    1.1989 C.ar      1 <0>        -0.0241
      7 C7          0.0111   -0.7081    1.2093 C.ar      1 <0>         0.0055
      8 C8          0.0147    0.0008    2.4535 C.1       1 <0>        -0.1023
      9 C9          0.0176    0.5820    3.4736 C.1       1 <0>        -0.1054
     10 C10         0.0212    1.2909    4.7178 C.ar      1 <0>        -0.0411
     11 C11        -0.0117    2.6820    4.7330 C.ar      1 <0>        -0.0285
     12 C12        -0.0071    3.3272    5.9807 C.ar      1 <0>        -0.1027
     13 C13        -0.0394    4.7293    6.0758 C.ar      1 <0>        -0.0935
     14 C14        -0.0342    5.3208    7.3018 C.ar      1 <0>        -0.1138
     15 C15         0.0032    4.5540    8.4648 C.ar      1 <0>        -0.0944
     16 C16         0.0352    3.1942    8.4096 C.ar      1 <0>        -0.0942
     17 C17         0.0306    2.5451    7.1630 C.ar      1 <0>         0.1320
     18 N1          0.0605    1.2099    7.0859 N.ar      1 <0>        -0.4683
     19 C18         0.0520    0.5866    5.9359 C.ar      1 <0>         0.1589
     20 C19         0.0607   -4.2619   -0.0371 C.2       1 <0>         0.5630
     21 O1          0.0825   -4.8842    1.0069 O.2       1 <0>        -0.5087
     22 N2          0.0613   -4.9193   -1.2137 N.am      1 <0>        -0.6692
     23 C20         0.1848   -6.3121   -1.2364 C.ar      1 <0>         0.1437
     24 C21         0.8890   -6.9319   -2.2609 C.ar      1 <0>        -0.1112
     25 C22         1.0090   -8.3074   -2.2803 C.ar      1 <0>        -0.0994
     26 C23         0.4286   -9.0679   -1.2816 C.ar      1 <0>        -0.0859
     27 C24        -0.2734   -8.4542   -0.2607 C.ar      1 <0>        -0.1640
     28 C25        -0.3916   -7.0782   -0.2317 C.ar      1 <0>        -0.0721
     29 C26        -0.9046   -9.2869    0.8252 C.3       1 <0>         0.5091
     30 F1         -0.6455  -10.6405    0.5851 F         1 <0>        -0.1760
     31 F2         -0.3676   -8.9219    2.0644 F         1 <0>        -0.1723
     32 F3         -2.2869   -9.0712    0.8343 F         1 <0>        -0.1756
     33 H1          0.9720    1.8854   -0.0029 H         1 <0>         0.0814
     34 H2         -0.5818    1.8604   -0.8708 H         1 <0>         0.0770
     35 H3         -0.5562    1.8512    0.9089 H         1 <0>         0.0722
     36 H4         -0.0374   -0.1383   -2.1286 H         1 <0>         0.1396
     37 H5          0.0094   -2.5943   -2.1579 H         1 <0>         0.1313
     38 H6          0.0517   -2.6524    2.1286 H         1 <0>         0.1451
     39 H7         -0.0395    3.2482    3.8138 H         1 <0>         0.1449
     40 H8         -0.0679    5.3337    5.1812 H         1 <0>         0.1331
     41 H9         -0.0591    6.3981    7.3741 H         1 <0>         0.1313
     42 H10         0.0074    5.0467    9.4258 H         1 <0>         0.1334
     43 H11         0.0644    2.6158    9.3212 H         1 <0>         0.1389
     44 H12         0.0733   -0.4931    5.9208 H         1 <0>         0.1659
     45 H13        -0.0239   -4.4263   -2.0447 H         1 <0>         0.4143
     46 H14         1.3419   -6.3386   -3.0415 H         1 <0>         0.1374
     47 H15         1.5564   -8.7898   -3.0766 H         1 <0>         0.1418
     48 H16         0.5236  -10.1436   -1.2993 H         1 <0>         0.1416
     49 H17        -0.9359   -6.5991    0.5686 H         1 <0>         0.1511
@<TRIPOS>BOND
     1    1    2 1
     2    1   33 1
     3    1   34 1
     4    1   35 1
     5    2    7 ar
     6    2    3 ar
     7    3    4 ar
     8    3   36 1
     9    4    5 ar
    10    4   37 1
    11    5    6 ar
    12    5   20 1
    13    6    7 ar
    14    6   38 1
    15    7    8 1
    16    8    9 3
    17    9   10 1
    18   10   19 ar
    19   10   11 ar
    20   11   12 ar
    21   11   39 1
    22   12   17 ar
    23   12   13 ar
    24   13   14 ar
    25   13   40 1
    26   14   15 ar
    27   14   41 1
    28   15   16 ar
    29   15   42 1
    30   16   17 ar
    31   16   43 1
    32   17   18 ar
    33   18   19 ar
    34   19   44 1
    35   20   21 2
    36   20   22 am
    37   22   23 1
    38   22   45 1
    39   23   28 ar
    40   23   24 ar
    41   24   25 ar
    42   24   46 1
    43   25   26 ar
    44   25   47 1
    45   26   27 ar
    46   26   48 1
    47   27   28 ar
    48   27   29 1
    49   28   49 1
    50   29   30 1
    51   29   31 1
    52   29   32 1
@<TRIPOS>MOLECULE
CHEMBL223873
   42    45     0     0     0
SMALL
USER_CHARGES

@<TRIPOS>ATOM
      1 C1          2.9558   -0.6059    1.4832 C.3       1 <0>        -0.1120
      2 C2          1.8217   -1.2852    0.7599 C.ar      1 <0>        -0.0779
      3 C3          2.0340   -1.8512   -0.4818 C.ar      1 <0>        -0.1211
      4 C4          0.9936   -2.4743   -1.1465 C.ar      1 <0>        -0.1058
      5 C5         -0.2624   -2.5330   -0.5708 C.ar      1 <0>        -0.1206
      6 C6         -0.4817   -1.9691    0.6706 C.ar      1 <0>        -0.0558
      7 C7          0.5627   -1.3478    1.3439 C.ar      1 <0>         0.1377
      8 N1          0.3457   -0.7812    2.6027 N.pl3     1 <0>        -0.6447
      9 C8          0.1418   -1.5961    3.7023 C.2       1 <0>         0.4885
     10 C9          0.0292   -1.0317    4.9937 C.2       1 <0>        -0.0884
     11 C10         0.0745    0.2492    5.4958 C.2       1 <0>         0.0310
     12 N2         -0.0953    0.1674    6.8161 N.2       1 <0>        -0.4598
     13 C11        -0.2438   -1.0867    7.1688 C.2       1 <0>         0.1731
     14 N3         -0.1745   -1.8669    6.0780 N.pl3     1 <0>        -0.3280
     15 C12        -0.2616   -3.2315    5.8581 C.2       1 <0>        -0.0057
     16 C13        -0.1460   -3.7161    4.5926 C.2       1 <0>         0.1317
     17 N4          0.0458   -2.9046    3.5501 N.2       1 <0>        -0.5479
     18 C14        -0.4780   -4.1540    6.9900 C.ar      1 <0>        -0.0481
     19 C15        -1.6725   -4.1096    7.7130 C.ar      1 <0>        -0.0982
     20 C16        -1.8679   -4.9745    8.7694 C.ar      1 <0>        -0.1171
     21 C17        -0.8839   -5.8845    9.1140 C.ar      1 <0>        -0.1065
     22 C18         0.3019   -5.9341    8.4022 C.ar      1 <0>        -0.1173
     23 C19         0.5084   -5.0795    7.3396 C.ar      1 <0>        -0.0918
     24 C20        -1.8508   -2.0332    1.2970 C.3       1 <0>        -0.1094
     25 H1          3.4799   -1.3341    2.1023 H         1 <0>         0.0699
     26 H2          3.6483   -0.1818    0.7561 H         1 <0>         0.0695
     27 H3          2.5596    0.1895    2.1144 H         1 <0>         0.0636
     28 H4          3.0136   -1.8068   -0.9344 H         1 <0>         0.1254
     29 H5          1.1623   -2.9158   -2.1176 H         1 <0>         0.1247
     30 H6         -1.0727   -3.0201   -1.0927 H         1 <0>         0.1249
     31 H7          0.3381    0.1833    2.7057 H         1 <0>         0.4198
     32 H8          0.2212    1.1544    4.9252 H         1 <0>         0.1831
     33 H9         -0.3977   -1.4373    8.1786 H         1 <0>         0.2109
     34 H10        -0.2143   -4.7811    4.4269 H         1 <0>         0.1724
     35 H11        -2.4410   -3.3994    7.4457 H         1 <0>         0.1220
     36 H12        -2.7908   -4.9413    9.3293 H         1 <0>         0.1278
     37 H13        -1.0419   -6.5590    9.9426 H         1 <0>         0.1266
     38 H14         1.0656   -6.6466    8.6768 H         1 <0>         0.1285
     39 H15         1.4322   -5.1225    6.7819 H         1 <0>         0.1258
     40 H16        -1.9668   -2.9822    1.8205 H         1 <0>         0.0758
     41 H17        -1.9656   -1.2117    2.0043 H         1 <0>         0.0586
     42 H18        -2.6103   -1.9519    0.5194 H         1 <0>         0.0650
@<TRIPOS>BOND
     1    1    2 1
     2    1   25 1
     3    1   26 1
     4    1   27 1
     5    2    7 ar
     6    2    3 ar
     7    3    4 ar
     8    3   28 1
     9    4    5 ar
    10    4   29 1
    11    5    6 ar
    12    5   30 1
    13    6    7 ar
    14    6   24 1
    15    7    8 1
    16    8    9 1
    17    8   31 1
    18    9   17 2
    19    9   10 1
    20   10   14 1
    21   10   11 2
    22   11   12 1
    23   11   32 1
    24   12   13 2
    25   13   14 1
    26   13   33 1
    27   14   15 1
    28   15   16 2
    29   15   18 1
    30   16   17 1
    31   16   34 1
    32   18   23 ar
    33   18   19 ar
    34   19   20 ar
    35   19   35 1
    36   20   21 ar
    37   20   36 1
    38   21   22 ar
    39   21   37 1
    40   22   23 ar
    41   22   38 1
    42   23   39 1
    43   24   40 1
    44   24   41 1
    45   24   42 1
@<TRIPOS>MOLECULE
CHEMBL584721
   50    54     0     0     0
SMALL
USER_CHARGES

@<TRIPOS>ATOM
      1 C1         -0.0187    1.5258    0.0104 C.3       1 <0>        -0.1578
      2 C2          0.0021   -0.0041    0.0020 C.3       1 <0>         0.2009
      3 H1          0.5123   -0.3556   -0.8948 H         1 <0>         0.1033
      4 C3          0.7309   -0.5033    1.2229 C.ar      1 <0>        -0.0969
      5 C4          0.0808   -0.5585    2.4416 C.ar      1 <0>        -0.1144
      6 C5          0.7494   -1.0164    3.5615 C.ar      1 <0>        -0.1147
      7 C6          2.0680   -1.4196    3.4626 C.ar      1 <0>        -0.1164
      8 C7          2.7178   -1.3652    2.2438 C.ar      1 <0>        -0.1149
      9 C8          2.0479   -0.9113    1.1230 C.ar      1 <0>        -0.1054
     10 N1         -1.3723   -0.5112    0.0124 N.pl3     1 <0>        -0.6866
     11 C9         -2.0691   -0.6463   -1.1758 C.ar      1 <0>         0.6023
     12 N2         -1.4755   -0.3172   -2.3138 N.ar      1 <0>        -0.5734
     13 C10        -2.1103   -0.4330   -3.4701 C.ar      1 <0>         0.2244
     14 C11        -3.4102   -0.9042   -3.4835 C.ar      1 <0>        -0.3065
     15 C12        -4.0078   -1.2423   -2.2699 C.ar      1 <0>         0.4482
     16 N3         -3.3106   -1.1063   -1.1475 N.ar      1 <0>        -0.5927
     17 N4         -5.3159   -1.7212   -2.2356 N.pl3     1 <0>        -0.4386
     18 C13        -6.1341   -1.9182   -3.3096 C.2       1 <0>         0.2789
     19 N5         -7.2862   -2.3741   -2.9155 N.2       1 <0>        -0.4681
     20 C14        -7.2899   -2.5022   -1.5626 C.ar      1 <0>         0.0458
     21 C15        -6.0248   -2.0913   -1.1069 C.ar      1 <0>         0.0656
     22 C16        -5.7295   -2.1188    0.2493 C.ar      1 <0>        -0.0845
     23 C17        -6.6664   -2.5487    1.1464 C.ar      1 <0>        -0.0871
     24 C18        -7.9279   -2.9638    0.7098 C.ar      1 <0>        -0.0574
     25 C19        -8.2443   -2.9356   -0.6420 C.ar      1 <0>        -0.0443
     26 C20        -8.9351   -3.4280    1.6949 C.ar      1 <0>         0.0071
     27 C21       -10.2009   -3.8533    1.2815 C.ar      1 <0>        -0.1676
     28 C22       -11.1075   -4.2776    2.2309 C.ar      1 <0>         0.1049
     29 N6        -10.7928   -4.2851    3.5121 N.ar      1 <0>        -0.4882
     30 C23        -9.6097   -3.8919    3.9439 C.ar      1 <0>         0.1038
     31 C24        -8.6423   -3.4575    3.0615 C.ar      1 <0>        -0.1672
     32 H2          1.0039    1.9031    0.0027 H         1 <0>         0.0710
     33 H3         -0.5459    1.8868   -0.8726 H         1 <0>         0.0657
     34 H4         -0.5289    1.8773    0.9072 H         1 <0>         0.0578
     35 H5         -0.9493   -0.2435    2.5188 H         1 <0>         0.1192
     36 H6          0.2417   -1.0589    4.5138 H         1 <0>         0.1247
     37 H7          2.5905   -1.7767    4.3377 H         1 <0>         0.1242
     38 H8          3.7481   -1.6798    2.1666 H         1 <0>         0.1258
     39 H9          2.5545   -0.8723    0.1700 H         1 <0>         0.1258
     40 H10        -1.7940   -0.7522    0.8520 H         1 <0>         0.4132
     41 H11        -1.6183   -0.1619   -4.3925 H         1 <0>         0.1804
     42 H12        -3.9504   -1.0078   -4.4129 H         1 <0>         0.1520
     43 H13        -5.8642   -1.7234   -4.3371 H         1 <0>         0.2254
     44 H14        -4.7575   -1.8003    0.5960 H         1 <0>         0.1429
     45 H15        -6.4305   -2.5681    2.2002 H         1 <0>         0.1371
     46 H16        -9.2182   -3.2581   -0.9794 H         1 <0>         0.1391
     47 H17       -10.4653   -3.8495    0.2344 H         1 <0>         0.1386
     48 H18       -12.0880   -4.6077    1.9212 H         1 <0>         0.1586
     49 H19        -9.3942   -3.9144    5.0020 H         1 <0>         0.1581
     50 H20        -7.6745   -3.1411    3.4215 H         1 <0>         0.1379
@<TRIPOS>BOND
     1    1    2 1
     2    1   32 1
     3    1   33 1
     4    1   34 1
     5    2    3 1
     6    2    4 1
     7    2   10 1
     8    4    9 ar
     9    4    5 ar
    10    5    6 ar
    11    5   35 1
    12    6    7 ar
    13    6   36 1
    14    7    8 ar
    15    7   37 1
    16    8    9 ar
    17    8   38 1
    18    9   39 1
    19   10   11 1
    20   10   40 1
    21   11   16 ar
    22   11   12 ar
    23   12   13 ar
    24   13   14 ar
    25   13   41 1
    26   14   15 ar
    27   14   42 1
    28   15   16 ar
    29   15   17 1
    30   17   21 1
    31   17   18 1
    32   18   19 2
    33   18   43 1
    34   19   20 1
    35   20   25 ar
    36   20   21 ar
    37   21   22 ar
    38   22   23 ar
    39   22   44 1
    40   23   24 ar
    41   23   45 1
    42   24   25 ar
    43   24   26 1
    44   25   46 1
    45   26   31 ar
    46   26   27 ar
    47   27   28 ar
    48   27   47 1
    49   28   29 ar
    50   28   48 1
    51   29   30 ar
    52   30   31 ar
    53   30   49 1
    54   31   50 1
@<TRIPOS>MOLECULE
CHEMBL572197
   77    83     0     0     0
SMALL
USER_CHARGES

@<TRIPOS>ATOM
      1 C1          0.8880    1.5528   -0.7426 C.3       1 <0>        -0.1680
      2 C2          0.6793    0.0451   -0.5871 C.3       1 <0>         0.1703
      3 H1          1.2372   -0.4807   -1.3620 H         1 <0>         0.0984
      4 C3          1.1766   -0.3993    0.7899 C.3       1 <0>         0.0594
      5 H2          0.6824    0.1896    1.5626 H         1 <0>         0.0969
      6 C4          2.6920   -0.1900    0.8783 C.3       1 <0>         0.1013
      7 N1          3.1691   -0.7598    2.1476 N.am      1 <0>        -0.6238
      8 C5          2.7853   -2.1406    2.4783 C.3       1 <0>         0.0684
      9 C6          1.2662   -2.2731    2.3268 C.3       1 <0>         0.0413
     10 N2          0.8692   -1.8223    0.9863 N.3       1 <0>        -0.5242
     11 C7          1.5004   -2.6456   -0.0538 C.3       1 <0>         0.0126
     12 C8          3.9379   -0.0360    2.9851 C.2       1 <0>         0.7105
     13 O1          4.3222    1.0694    2.6554 O.2       1 <0>        -0.5601
     14 N3          4.2808   -0.5376    4.1882 N.am      1 <0>        -0.6746
     15 C9          4.9954    0.2485    5.0944 C.ar      1 <0>         0.1690
     16 C10         5.0282    1.6188    4.9511 C.ar      1 <0>        -0.1444
     17 C11         5.7376    2.4113    5.8485 C.ar      1 <0>        -0.0883
     18 C12         6.4175    1.8576    6.8902 C.ar      1 <0>        -0.1312
     19 C13         6.4090    0.4643    7.0720 C.ar      1 <0>        -0.0319
     20 C14         5.6855   -0.3525    6.1683 C.ar      1 <0>        -0.0684
     21 C15         5.6736   -1.7438    6.3545 C.ar      1 <0>        -0.1119
     22 C16         6.3509   -2.2894    7.4020 C.ar      1 <0>        -0.1136
     23 C17         7.0574   -1.4864    8.2953 C.ar      1 <0>        -0.1154
     24 C18         7.1017   -0.1352    8.1384 C.ar      1 <0>        -0.1024
     25 N4         -0.7464   -0.2664   -0.7153 N.pl3     1 <0>        -0.6713
     26 C19        -1.3042   -0.4525   -1.9682 C.ar      1 <0>         0.6042
     27 N5         -0.5325   -0.3505   -3.0406 N.ar      1 <0>        -0.5767
     28 C20        -1.0304   -0.5220   -4.2555 C.ar      1 <0>         0.2241
     29 C21        -2.3747   -0.8113   -4.4005 C.ar      1 <0>        -0.3096
     30 C22        -3.1611   -0.9122   -3.2534 C.ar      1 <0>         0.4487
     31 N6         -2.5947   -0.7334   -2.0653 N.ar      1 <0>        -0.5912
     32 N7         -4.5205   -1.2021   -3.3518 N.pl3     1 <0>        -0.4384
     33 C23        -5.2206   -1.4184   -4.5028 C.2       1 <0>         0.2785
     34 N8         -6.4678   -1.6620   -4.2275 N.2       1 <0>        -0.4688
     35 C24        -6.6571   -1.6195   -2.8825 C.ar      1 <0>         0.0452
     36 C25        -5.4103   -1.3299   -2.3004 C.ar      1 <0>         0.0664
     37 C26        -5.2915   -1.2286   -0.9210 C.ar      1 <0>        -0.0832
     38 C27        -6.3855   -1.4132   -0.1232 C.ar      1 <0>        -0.0873
     39 C28        -7.6317   -1.7051   -0.6855 C.ar      1 <0>        -0.0577
     40 C29        -7.7716   -1.8023   -2.0636 C.ar      1 <0>        -0.0449
     41 C30        -8.8106   -1.9030    0.1928 C.ar      1 <0>         0.0074
     42 C31       -10.0654   -2.2013   -0.3462 C.ar      1 <0>        -0.1678
     43 C32       -11.1353   -2.3781    0.5067 C.ar      1 <0>         0.1047
     44 N9        -10.9852   -2.2690    1.8129 N.ar      1 <0>        -0.4884
     45 C33        -9.8187   -1.9887    2.3618 C.ar      1 <0>         0.1037
     46 C34        -8.6959   -1.8019    1.5822 C.ar      1 <0>        -0.1671
     47 H3          1.9488    1.7845   -0.6472 H         1 <0>         0.0719
     48 H4          0.5337    1.8694   -1.7236 H         1 <0>         0.0680
     49 H5          0.3301    2.0786    0.0323 H         1 <0>         0.0598
     50 H6          3.1806   -0.6937    0.0442 H         1 <0>         0.0755
     51 H7          2.9168    0.8762    0.8482 H         1 <0>         0.1081
     52 H8          3.2828   -2.8318    1.7980 H         1 <0>         0.0789
     53 H9          3.0718   -2.3640    3.5060 H         1 <0>         0.0811
     54 H10         0.9770   -3.3155    2.4605 H         1 <0>         0.0951
     55 H11         0.7708   -1.6585    3.0784 H         1 <0>         0.0842
     56 H12         2.5816   -2.5131   -0.0157 H         1 <0>         0.0340
     57 H13         1.2567   -3.6945    0.1155 H         1 <0>         0.0711
     58 H14         1.1311   -2.3402   -1.0328 H         1 <0>         0.0736
     59 H15         4.0313   -1.4447    4.4245 H         1 <0>         0.4050
     60 H16         4.4975    2.0829    4.1329 H         1 <0>         0.1610
     61 H17         5.7495    3.4832    5.7162 H         1 <0>         0.1270
     62 H18         6.9631    2.4888    7.5761 H         1 <0>         0.1278
     63 H19         5.1296   -2.3782    5.6704 H         1 <0>         0.1157
     64 H20         6.3401   -3.3601    7.5429 H         1 <0>         0.1239
     65 H21         7.5859   -1.9440    9.1185 H         1 <0>         0.1248
     66 H22         7.6546    0.4746    8.8376 H         1 <0>         0.1301
     67 H23        -1.2996   -0.3422    0.0779 H         1 <0>         0.4177
     68 H24        -0.3936   -0.4366   -5.1236 H         1 <0>         0.1783
     69 H25        -2.8060   -0.9555   -5.3801 H         1 <0>         0.1501
     70 H26        -4.8003   -1.3909   -5.4972 H         1 <0>         0.2247
     71 H27        -4.3328   -1.0039   -0.4775 H         1 <0>         0.1440
     72 H28        -6.2866   -1.3334    0.9493 H         1 <0>         0.1368
     73 H29        -8.7340   -2.0297   -2.4978 H         1 <0>         0.1385
     74 H30       -10.1955   -2.2918   -1.4145 H         1 <0>         0.1385
     75 H31       -12.1087   -2.6086    0.0996 H         1 <0>         0.1584
     76 H32        -9.7408   -1.9087    3.4361 H         1 <0>         0.1580
     77 H33        -7.7432   -1.5770    2.0385 H         1 <0>         0.1379
@<TRIPOS>BOND
     1    1    2 1
     2    1   47 1
     3    1   48 1
     4    1   49 1
     5    2    3 1
     6    2    4 1
     7    2   25 1
     8    4    5 1
     9    4   10 1
    10    4    6 1
    11    6    7 1
    12    6   50 1
    13    6   51 1
    14    7    8 1
    15    7   12 am
    16    8    9 1
    17    8   52 1
    18    8   53 1
    19    9   10 1
    20    9   54 1
    21    9   55 1
    22   10   11 1
    23   11   56 1
    24   11   57 1
    25   11   58 1
    26   12   13 2
    27   12   14 am
    28   14   15 1
    29   14   59 1
    30   15   20 ar
    31   15   16 ar
    32   16   17 ar
    33   16   60 1
    34   17   18 ar
    35   17   61 1
    36   18   19 ar
    37   18   62 1
    38   19   24 ar
    39   19   20 ar
    40   20   21 ar
    41   21   22 ar
    42   21   63 1
    43   22   23 ar
    44   22   64 1
    45   23   24 ar
    46   23   65 1
    47   24   66 1
    48   25   26 1
    49   25   67 1
    50   26   31 ar
    51   26   27 ar
    52   27   28 ar
    53   28   29 ar
    54   28   68 1
    55   29   30 ar
    56   29   69 1
    57   30   31 ar
    58   30   32 1
    59   32   36 1
    60   32   33 1
    61   33   34 2
    62   33   70 1
    63   34   35 1
    64   35   40 ar
    65   35   36 ar
    66   36   37 ar
    67   37   38 ar
    68   37   71 1
    69   38   39 ar
    70   38   72 1
    71   39   40 ar
    72   39   41 1
    73   40   73 1
    74   41   46 ar
    75   41   42 ar
    76   42   43 ar
    77   42   74 1
    78   43   44 ar
    79   43   75 1
    80   44   45 ar
    81   45   46 ar
    82   45   76 1
    83   46   77 1
@<TRIPOS>MOLECULE
CHEMBL572197__1
   78    84     0     0     0
SMALL
USER_CHARGES

@<TRIPOS>ATOM
      1 C1          1.1373    0.1558    1.6089 C.3       1 <0>        -0.1709
      2 C2          0.4704    0.7096    0.3482 C.3       1 <0>         0.1502
      3 H1          0.6170    1.7888    0.3037 H         1 <0>         0.1226
      4 C3          1.0956    0.0587   -0.8873 C.3       1 <0>         0.0012
      5 H2          1.0159   -1.0254   -0.8066 H         1 <0>         0.1507
      6 C4          2.5721    0.4568   -0.9826 C.3       1 <0>         0.1154
      7 N1          3.1171   -0.0713   -2.2429 N.am      1 <0>        -0.6408
      8 C5          2.3779    0.2004   -3.4855 C.3       1 <0>         0.0814
      9 C6          0.9105   -0.1856   -3.2720 C.3       1 <0>        -0.0211
     10 N2          0.3882    0.5134   -2.0911 N.4       1 <0>        -0.3806
     11 C7          0.5835    1.9601   -2.2545 C.3       1 <0>        -0.0656
     12 C8          4.2612   -0.7833   -2.2588 C.2       1 <0>         0.7126
     13 O1          4.8090   -1.0771   -1.2138 O.2       1 <0>        -0.5393
     14 N3          4.7982   -1.1698   -3.4330 N.am      1 <0>        -0.6661
     15 C9          5.9292   -1.9886   -3.4476 C.ar      1 <0>         0.1493
     16 C10         6.2763   -2.7148   -2.3289 C.ar      1 <0>        -0.1325
     17 C11         7.4017   -3.5334   -2.3328 C.ar      1 <0>        -0.0963
     18 C12         8.1895   -3.6402   -3.4382 C.ar      1 <0>        -0.1146
     19 C13         7.8701   -2.9168   -4.5997 C.ar      1 <0>        -0.0347
     20 C14         6.7236   -2.0845   -4.6098 C.ar      1 <0>        -0.0622
     21 C15         6.4028   -1.3668   -5.7727 C.ar      1 <0>        -0.1214
     22 C16         7.1921   -1.4834   -6.8759 C.ar      1 <0>        -0.1037
     23 C17         8.3163   -2.3068   -6.8693 C.ar      1 <0>        -0.1146
     24 C18         8.6649   -3.0074   -5.7557 C.ar      1 <0>        -0.0963
     25 N4         -0.9637    0.4126    0.3837 N.pl3     1 <0>        -0.7159
     26 C19        -1.8294    1.2598    1.0533 C.ar      1 <0>         0.5916
     27 N5         -1.3443    2.3377    1.6521 N.ar      1 <0>        -0.5740
     28 C20        -2.1417    3.1713    2.3023 C.ar      1 <0>         0.2252
     29 C21        -3.4981    2.9078    2.3535 C.ar      1 <0>        -0.2860
     30 C22        -3.9786    1.7657    1.7138 C.ar      1 <0>         0.4566
     31 N6         -3.1227    0.9758    1.0752 N.ar      1 <0>        -0.5858
     32 N7         -5.3379    1.4605    1.7394 N.pl3     1 <0>        -0.4425
     33 C23        -6.3196    2.1887    2.3458 C.2       1 <0>         0.2783
     34 N8         -7.4732    1.6146    2.1722 N.2       1 <0>        -0.4584
     35 C24        -7.3148    0.4788    1.4431 C.ar      1 <0>         0.0490
     36 C25        -5.9443    0.3661    1.1495 C.ar      1 <0>         0.0604
     37 C26        -5.4773   -0.7066    0.4021 C.ar      1 <0>        -0.0886
     38 C27        -6.3485   -1.6554   -0.0540 C.ar      1 <0>        -0.0850
     39 C28        -7.7146   -1.5566    0.2260 C.ar      1 <0>        -0.0503
     40 C29        -8.1991   -0.4952    0.9790 C.ar      1 <0>        -0.0410
     41 C30        -8.6487   -2.5940   -0.2756 C.ar      1 <0>         0.0000
     42 C31       -10.0193   -2.5133   -0.0132 C.ar      1 <0>        -0.1654
     43 C32       -10.8529   -3.4994   -0.4990 C.ar      1 <0>         0.1085
     44 N9        -10.3720   -4.5072   -1.2017 N.ar      1 <0>        -0.4838
     45 C33        -9.0856   -4.6206   -1.4716 C.ar      1 <0>         0.1052
     46 C34        -8.1831   -3.6758   -1.0286 C.ar      1 <0>        -0.1675
     47 H3          0.9236   -0.9096    1.6949 H         1 <0>         0.0712
     48 H4          2.2151    0.3063    1.5459 H         1 <0>         0.0830
     49 H5          0.7484    0.6762    2.4842 H         1 <0>         0.0868
     50 H6          2.6600    1.5432   -0.9723 H         1 <0>         0.1028
     51 H7          3.1205    0.0340   -0.1408 H         1 <0>         0.1465
     52 H8          2.4462    1.2609   -3.7279 H         1 <0>         0.1047
     53 H9          2.7979   -0.3919   -4.2985 H         1 <0>         0.1215
     54 H10         0.3288    0.0981   -4.1491 H         1 <0>         0.1500
     55 H11         0.8364   -1.2623   -3.1193 H         1 <0>         0.1378
     56 H12         1.6503    2.1834   -2.2690 H         1 <0>         0.1288
     57 H13         0.1318    2.2841   -3.1921 H         1 <0>         0.1311
     58 H14         0.1135    2.4864   -1.4238 H         1 <0>         0.1280
     59 H15         4.3991   -0.8792   -4.2679 H         1 <0>         0.4050
     60 H16         5.6683   -2.6474   -1.4389 H         1 <0>         0.1576
     61 H17         7.6546   -4.0930   -1.4443 H         1 <0>         0.1304
     62 H18         9.0593   -4.2801   -3.4222 H         1 <0>         0.1323
     63 H19         5.5341   -0.7254   -5.7923 H         1 <0>         0.1137
     64 H20         6.9430   -0.9301   -7.7693 H         1 <0>         0.1262
     65 H21         8.9256   -2.3825   -7.7578 H         1 <0>         0.1288
     66 H22         9.5398   -3.6405   -5.7645 H         1 <0>         0.1340
     67 H23        -1.3065   -0.3777   -0.0621 H         1 <0>         0.4124
     68 H24        -1.7370    4.0471    2.7876 H         1 <0>         0.1869
     69 H25        -4.1701    3.5713    2.8775 H         1 <0>         0.1595
     70 H26        -6.1614    3.1076    2.8908 H         1 <0>         0.2276
     71 H27        -4.4237   -0.7911    0.1804 H         1 <0>         0.1380
     72 H28        -5.9791   -2.4873   -0.6353 H         1 <0>         0.1375
     73 H29        -9.2547   -0.4180    1.1937 H         1 <0>         0.1426
     74 H30       -10.4198   -1.6914    0.5617 H         1 <0>         0.1396
     75 H31       -11.9133   -3.4459   -0.3011 H         1 <0>         0.1612
     76 H32        -8.7348   -5.4621   -2.0505 H         1 <0>         0.1589
     77 H33        -7.1320   -3.7726   -1.2568 H         1 <0>         0.1359
     78 H34        -0.5970    0.3183   -1.9946 H         1 <0>         0.4264
@<TRIPOS>BOND
     1    1    2 1
     2    1   47 1
     3    1   48 1
     4    1   49 1
     5    2    3 1
     6    2    4 1
     7    2   25 1
     8    4    5 1
     9    4   10 1
    10    4    6 1
    11    6    7 1
    12    6   50 1
    13    6   51 1
    14    7    8 1
    15    7   12 am
    16    8    9 1
    17    8   52 1
    18    8   53 1
    19    9   10 1
    20    9   54 1
    21    9   55 1
    22   10   11 1
    23   10   78 1
    24   11   56 1
    25   11   57 1
    26   11   58 1
    27   12   13 2
    28   12   14 am
    29   14   15 1
    30   14   59 1
    31   15   20 ar
    32   15   16 ar
    33   16   17 ar
    34   16   60 1
    35   17   18 ar
    36   17   61 1
    37   18   19 ar
    38   18   62 1
    39   19   24 ar
    40   19   20 ar
    41   20   21 ar
    42   21   22 ar
    43   21   63 1
    44   22   23 ar
    45   22   64 1
    46   23   24 ar
    47   23   65 1
    48   24   66 1
    49   25   26 1
    50   25   67 1
    51   26   31 ar
    52   26   27 ar
    53   27   28 ar
    54   28   29 ar
    55   28   68 1
    56   29   30 ar
    57   29   69 1
    58   30   31 ar
    59   30   32 1
    60   32   36 1
    61   32   33 1
    62   33   34 2
    63   33   70 1
    64   34   35 1
    65   35   40 ar
    66   35   36 ar
    67   36   37 ar
    68   37   38 ar
    69   37   71 1
    70   38   39 ar
    71   38   72 1
    72   39   40 ar
    73   39   41 1
    74   40   73 1
    75   41   46 ar
    76   41   42 ar
    77   42   43 ar
    78   42   74 1
    79   43   44 ar
    80   43   75 1
    81   44   45 ar
    82   45   46 ar
    83   45   76 1
    84   46   77 1
@<TRIPOS>MOLECULE
CHEMBL1084451
   78    84     0     0     0
SMALL
USER_CHARGES

@<TRIPOS>ATOM
      1 C1         -1.0211    1.1666    1.9670 C.3       1 <0>        -0.1893
      2 C2         -0.8808   -0.3366    1.7186 C.3       1 <0>        -0.0109
      3 N1         -0.1817   -0.5595    0.4460 N.4       1 <0>        -0.3841
      4 C3         -1.0041   -0.0501   -0.6580 C.3       1 <0>        -0.0097
      5 C4         -0.2459   -0.2061   -1.9780 C.3       1 <0>        -0.1376
      6 C5          0.0629   -1.6879   -2.2109 C.3       1 <0>        -0.1144
      7 C6          0.8573   -2.2273   -1.0180 C.3       1 <0>        -0.1446
      8 C7          0.0583   -1.9964    0.2664 C.3       1 <0>        -0.0057
      9 C8          0.8898   -1.8434   -3.4887 C.3       1 <0>         0.1469
     10 N2          1.0830   -3.2671   -3.7751 N.pl3     1 <0>        -0.7062
     11 C9          1.8055   -3.6571   -4.8894 C.ar      1 <0>         0.5646
     12 N3          2.3198   -2.7284   -5.6830 N.ar      1 <0>        -0.5746
     13 C10         3.0173   -3.0605   -6.7580 C.ar      1 <0>         0.1946
     14 C11         3.2098   -4.3979   -7.0534 C.ar      1 <0>        -0.2768
     15 C12         2.6557   -5.3552   -6.1984 C.ar      1 <0>         0.2751
     16 N4          1.9697   -4.9478   -5.1321 N.ar      1 <0>        -0.5395
     17 C13         2.8336   -6.8004   -6.4713 C.ar      1 <0>        -0.1388
     18 C14         3.5621   -7.2290   -7.5832 C.ar      1 <0>        -0.0116
     19 C15         3.7003   -8.5906   -7.7945 C.ar      1 <0>        -0.2102
     20 C16         3.1190   -9.4780   -6.9078 C.ar      1 <0>         0.1646
     21 N5          2.4349   -9.0498   -5.8645 N.ar      1 <0>        -0.5272
     22 C17         2.2790   -7.7606   -5.6155 C.ar      1 <0>         0.3554
     23 O1          1.5729   -7.3655   -4.5282 O.3       1 <0>        -0.2019
     24 C18         0.9708   -8.3238   -3.7757 C.ar      1 <0>         0.0630
     25 C19        -0.3632   -8.6086   -3.9579 C.ar      1 <0>        -0.0716
     26 C20        -0.9948   -9.5870   -3.1962 C.ar      1 <0>        -0.1571
     27 C21        -0.2999  -10.2954   -2.2402 C.ar      1 <0>         0.1895
     28 C22         1.0689  -10.0266   -2.0297 C.ar      1 <0>        -0.0627
     29 C23         1.7116   -9.0340   -2.8096 C.ar      1 <0>        -0.0188
     30 C24         3.0758   -8.7714   -2.6019 C.ar      1 <0>        -0.0937
     31 C25         3.7619   -9.4754   -1.6602 C.ar      1 <0>        -0.1105
     32 C26         3.1307  -10.4554   -0.8968 C.ar      1 <0>        -0.1113
     33 C27         1.8075  -10.7292   -1.0641 C.ar      1 <0>        -0.1099
     34 N6         -0.9479  -11.2748   -1.4827 N.pl3     1 <0>        -0.6328
     35 C28        -2.2279  -11.6688   -1.8143 C.2       1 <0>         0.5302
     36 N7         -3.0031  -12.5187   -1.0778 N.pl3     1 <0>        -0.6158
     37 H1         -2.7554  -12.9456   -0.2427 H         1 <0>         0.4227
     38 C29        -4.2088  -12.6572   -1.7452 C.ar      1 <0>         0.0478
     39 C30        -5.3694  -13.3737   -1.4951 C.ar      1 <0>        -0.1054
     40 C31        -6.4258  -13.3001   -2.3794 C.ar      1 <0>        -0.1065
     41 C32        -6.3352  -12.5139   -3.5185 C.ar      1 <0>        -0.1173
     42 C33        -5.1906  -11.7958   -3.7827 C.ar      1 <0>        -0.0759
     43 C34        -4.1117  -11.8591   -2.8970 C.ar      1 <0>         0.0708
     44 N8         -2.8832  -11.2791   -2.8795 N.2       1 <0>        -0.5195
     45 H2         -0.0315    1.6214    2.0114 H         1 <0>         0.0804
     46 H3         -1.5919    1.6173    1.1551 H         1 <0>         0.0806
     47 H4         -1.5398    1.3320    2.9113 H         1 <0>         0.1061
     48 H5         -0.3099   -0.7872    2.5305 H         1 <0>         0.1298
     49 H6         -1.8704   -0.7914    1.6741 H         1 <0>         0.1283
     50 H7         -1.9361   -0.6132   -0.7061 H         1 <0>         0.1291
     51 H8         -1.2257    1.0037   -0.4892 H         1 <0>         0.1342
     52 H9         -0.8588    0.1710   -2.7966 H         1 <0>         0.1168
     53 H10         0.6863    0.3569   -1.9310 H         1 <0>         0.0929
     54 H11        -0.8697   -2.2435   -2.3090 H         1 <0>         0.0969
     55 H12         1.0329   -3.2949   -1.1504 H         1 <0>         0.1125
     56 H13         1.8124   -1.7062   -0.9511 H         1 <0>         0.0919
     57 H14         0.6210   -2.3795    1.1177 H         1 <0>         0.1310
     58 H15        -0.8964   -2.5180    0.1986 H         1 <0>         0.1289
     59 H16         0.3651   -1.3735   -4.3206 H         1 <0>         0.0756
     60 H17         1.8599   -1.3650   -3.3543 H         1 <0>         0.0717
     61 H18         0.7046   -3.9365   -3.1838 H         1 <0>         0.4124
     62 H19         3.4314   -2.2952   -7.3977 H         1 <0>         0.1710
     63 H20         3.7746   -4.6957   -7.9245 H         1 <0>         0.1469
     64 H21         4.0066   -6.5159   -8.2618 H         1 <0>         0.1496
     65 H22         4.2570   -8.9561   -8.6447 H         1 <0>         0.1475
     66 H23         3.2267  -10.5400   -7.0725 H         1 <0>         0.1655
     67 H24        -0.9274   -8.0654   -4.7015 H         1 <0>         0.1294
     68 H25        -2.0427   -9.7935   -3.3561 H         1 <0>         0.1878
     69 H26         3.5780   -8.0149   -3.1866 H         1 <0>         0.1205
     70 H27         4.8108   -9.2717   -1.5028 H         1 <0>         0.1237
     71 H28         3.6972  -11.0000   -0.1560 H         1 <0>         0.1257
     72 H29         1.3311  -11.4914   -0.4653 H         1 <0>         0.1194
     73 H30        -0.4977  -11.6776   -0.7237 H         1 <0>         0.4193
     74 H31        -5.4459  -13.9882   -0.6103 H         1 <0>         0.1236
     75 H32        -7.3292  -13.8586   -2.1835 H         1 <0>         0.1324
     76 H33        -7.1687  -12.4649   -4.2036 H         1 <0>         0.1319
     77 H34        -5.1269  -11.1854   -4.6714 H         1 <0>         0.1306
     78 H35         0.7011   -0.0710    0.4583 H         1 <0>         0.4224
@<TRIPOS>BOND
     1    1    2 1
     2    1   45 1
     3    1   46 1
     4    1   47 1
     5    2    3 1
     6    2   48 1
     7    2   49 1
     8    3    8 1
     9    3    4 1
    10    3   78 1
    11    4    5 1
    12    4   50 1
    13    4   51 1
    14    5    6 1
    15    5   52 1
    16    5   53 1
    17    6    7 1
    18    6    9 1
    19    6   54 1
    20    7    8 1
    21    7   55 1
    22    7   56 1
    23    8   57 1
    24    8   58 1
    25    9   10 1
    26    9   59 1
    27    9   60 1
    28   10   11 1
    29   10   61 1
    30   11   16 ar
    31   11   12 ar
    32   12   13 ar
    33   13   14 ar
    34   13   62 1
    35   14   15 ar
    36   14   63 1
    37   15   16 ar
    38   15   17 1
    39   17   22 ar
    40   17   18 ar
    41   18   19 ar
    42   18   64 1
    43   19   20 ar
    44   19   65 1
    45   20   21 ar
    46   20   66 1
    47   21   22 ar
    48   22   23 1
    49   23   24 1
    50   24   29 ar
    51   24   25 ar
    52   25   26 ar
    53   25   67 1
    54   26   27 ar
    55   26   68 1
    56   27   28 ar
    57   27   34 1
    58   28   33 ar
    59   28   29 ar
    60   29   30 ar
    61   30   31 ar
    62   30   69 1
    63   31   32 ar
    64   31   70 1
    65   32   33 ar
    66   32   71 1
    67   33   72 1
    68   34   35 1
    69   34   73 1
    70   35   44 2
    71   35   36 1
    72   36   37 1
    73   36   38 1
    74   38   43 ar
    75   38   39 ar
    76   39   40 ar
    77   39   74 1
    78   40   41 ar
    79   40   75 1
    80   41   42 ar
    81   41   76 1
    82   42   43 ar
    83   42   77 1
    84   43   44 1
@<TRIPOS>MOLECULE
CHEMBL1084452
   75    81     0     0     0
SMALL
USER_CHARGES

@<TRIPOS>ATOM
      1 C1         -0.6716   -0.7048    3.3640 C.3       1 <0>        -0.0545
      2 N1         -0.4774   -1.3134    2.0412 N.4       1 <0>        -0.3883
      3 C2          0.1816   -2.6285    2.1905 C.3       1 <0>        -0.0108
      4 C3          1.1249   -2.7395    0.9667 C.3       1 <0>        -0.1435
      5 C4          1.6243   -1.2778    0.8224 C.3       1 <0>        -0.1392
      6 C5          0.3857   -0.4466    1.2180 C.3       1 <0>         0.0279
      7 C6          0.8175    0.7777    2.0277 C.3       1 <0>        -0.1582
      8 C7          1.6709    1.6949    1.1495 C.3       1 <0>         0.1450
      9 N2          2.1819    2.8061    1.9558 N.pl3     1 <0>        -0.7063
     10 C8          2.9847    3.7718    1.3737 C.ar      1 <0>         0.5651
     11 N3          3.2761    3.6776    0.0842 N.ar      1 <0>        -0.5760
     12 C9          4.0402    4.5809   -0.5098 C.ar      1 <0>         0.1944
     13 C10         4.5395    5.6371    0.2305 C.ar      1 <0>        -0.2755
     14 C11         4.2154    5.7106    1.5885 C.ar      1 <0>         0.2765
     15 N4          3.4371    4.7684    2.1178 N.ar      1 <0>        -0.5380
     16 C12         4.7254    6.8223    2.4245 C.ar      1 <0>        -0.1404
     17 C13         5.5326    7.8170    1.8681 C.ar      1 <0>        -0.0111
     18 C14         5.9837    8.8353    2.6912 C.ar      1 <0>        -0.2106
     19 C15         5.6257    8.8383    4.0266 C.ar      1 <0>         0.1655
     20 N5          4.8624    7.8875    4.5301 N.ar      1 <0>        -0.5274
     21 C16         4.4015    6.8970    3.7852 C.ar      1 <0>         0.3563
     22 O1          3.6152    5.9446    4.3432 O.3       1 <0>        -0.2022
     23 C17         3.4087    5.9937    5.6856 C.ar      1 <0>         0.0626
     24 C18         4.2301    5.2908    6.5372 C.ar      1 <0>        -0.0712
     25 C19         4.0328    5.3306    7.9141 C.ar      1 <0>        -0.1588
     26 C20         3.0096    6.0752    8.4594 C.ar      1 <0>         0.1902
     27 C21         2.1506    6.8067    7.6127 C.ar      1 <0>        -0.0629
     28 C22         2.3560    6.7694    6.2116 C.ar      1 <0>        -0.0187
     29 C23         1.5026    7.5026    5.3706 C.ar      1 <0>        -0.0952
     30 C24         0.4951    8.2414    5.9114 C.ar      1 <0>        -0.1102
     31 C25         0.2964    8.2821    7.2900 C.ar      1 <0>        -0.1112
     32 C26         1.0979    7.5759    8.1342 C.ar      1 <0>        -0.1098
     33 N6          2.8236    6.1051    9.8441 N.pl3     1 <0>        -0.6326
     34 C27         3.7624    5.5343   10.6788 C.2       1 <0>         0.5308
     35 N7          3.6296    5.3967   12.0312 N.pl3     1 <0>        -0.6157
     36 H1          2.8714    5.6784   12.5665 H         1 <0>         0.4229
     37 C28         4.7793    4.7796   12.4959 C.ar      1 <0>         0.0479
     38 C29         5.2184    4.3843   13.7503 C.ar      1 <0>        -0.1052
     39 C30         6.4497    3.7773   13.8871 C.ar      1 <0>        -0.1067
     40 C31         7.2530    3.5597   12.7774 C.ar      1 <0>        -0.1173
     41 C32         6.8330    3.9457   11.5243 C.ar      1 <0>        -0.0761
     42 C33         5.5884    4.5612   11.3686 C.ar      1 <0>         0.0709
     43 N8          4.9113    5.0385   10.2917 N.2       1 <0>        -0.5197
     44 H2         -1.0961    0.2922    3.2464 H         1 <0>         0.1265
     45 H3         -1.3511   -1.3220    3.9517 H         1 <0>         0.1231
     46 H4          0.2883   -0.6330    3.8754 H         1 <0>         0.1242
     47 H5          0.7557   -2.6623    3.1164 H         1 <0>         0.1319
     48 H6         -0.5588   -3.4282    2.1727 H         1 <0>         0.1357
     49 H7          1.9537   -3.4167    1.1728 H         1 <0>         0.1175
     50 H8          0.5769   -3.0544    0.0787 H         1 <0>         0.0998
     51 H9          2.4522   -1.0843    1.5044 H         1 <0>         0.1012
     52 H10         1.9151   -1.0698   -0.2073 H         1 <0>         0.1163
     53 H11        -0.1508   -0.1316    0.3230 H         1 <0>         0.1438
     54 H12        -0.0658    1.3187    2.3673 H         1 <0>         0.0971
     55 H13         1.4003    0.4555    2.8906 H         1 <0>         0.0964
     56 H14         2.5073    1.1294    0.7387 H         1 <0>         0.0758
     57 H15         1.0624    2.0870    0.3346 H         1 <0>         0.0747
     58 H16         1.9577    2.8652    2.8977 H         1 <0>         0.4150
     59 H17         4.2714    4.4938   -1.5611 H         1 <0>         0.1715
     60 H18         5.1654    6.3874   -0.2296 H         1 <0>         0.1476
     61 H19         5.7989    7.7925    0.8217 H         1 <0>         0.1496
     62 H20         6.6099    9.6201    2.2934 H         1 <0>         0.1477
     63 H21         5.9774    9.6323    4.6687 H         1 <0>         0.1658
     64 H22         5.0382    4.7002    6.1315 H         1 <0>         0.1284
     65 H23         4.6896    4.7707    8.5633 H         1 <0>         0.1893
     66 H24         1.6451    7.4805    4.3003 H         1 <0>         0.1220
     67 H25        -0.1594    8.8044    5.2625 H         1 <0>         0.1241
     68 H26        -0.5101    8.8759    7.6942 H         1 <0>         0.1260
     69 H27         0.9323    7.6167    9.2007 H         1 <0>         0.1196
     70 H28         2.0345    6.5271   10.2184 H         1 <0>         0.4194
     71 H29         4.5980    4.5515   14.6184 H         1 <0>         0.1237
     72 H30         6.7907    3.4699   14.8647 H         1 <0>         0.1324
     73 H31         8.2153    3.0843   12.8973 H         1 <0>         0.1318
     74 H32         7.4634    3.7729   10.6646 H         1 <0>         0.1305
     75 H33        -1.3705   -1.4330    1.5871 H         1 <0>         0.4289
@<TRIPOS>BOND
     1    1    2 1
     2    1   44 1
     3    1   45 1
     4    1   46 1
     5    2    6 1
     6    2    3 1
     7    2   75 1
     8    3    4 1
     9    3   47 1
    10    3   48 1
    11    4    5 1
    12    4   49 1
    13    4   50 1
    14    5    6 1
    15    5   51 1
    16    5   52 1
    17    6    7 1
    18    6   53 1
    19    7    8 1
    20    7   54 1
    21    7   55 1
    22    8    9 1
    23    8   56 1
    24    8   57 1
    25    9   10 1
    26    9   58 1
    27   10   15 ar
    28   10   11 ar
    29   11   12 ar
    30   12   13 ar
    31   12   59 1
    32   13   14 ar
    33   13   60 1
    34   14   15 ar
    35   14   16 1
    36   16   21 ar
    37   16   17 ar
    38   17   18 ar
    39   17   61 1
    40   18   19 ar
    41   18   62 1
    42   19   20 ar
    43   19   63 1
    44   20   21 ar
    45   21   22 1
    46   22   23 1
    47   23   28 ar
    48   23   24 ar
    49   24   25 ar
    50   24   64 1
    51   25   26 ar
    52   25   65 1
    53   26   27 ar
    54   26   33 1
    55   27   32 ar
    56   27   28 ar
    57   28   29 ar
    58   29   30 ar
    59   29   66 1
    60   30   31 ar
    61   30   67 1
    62   31   32 ar
    63   31   68 1
    64   32   69 1
    65   33   34 1
    66   33   70 1
    67   34   43 2
    68   34   35 1
    69   35   36 1
    70   35   37 1
    71   37   42 ar
    72   37   38 ar
    73   38   39 ar
    74   38   71 1
    75   39   40 ar
    76   39   72 1
    77   40   41 ar
    78   40   73 1
    79   41   42 ar
    80   41   74 1
    81   42   43 1
@<TRIPOS>MOLECULE
CHEMBL1084452__1
   75    81     0     0     0
SMALL
USER_CHARGES

@<TRIPOS>ATOM
      1 C1         -1.0595   -0.3460    0.7520 C.3       1 <0>        -0.0556
      2 N1         -0.8005   -1.7900    0.6763 N.4       1 <0>        -0.3921
      3 C2         -2.0756   -2.5271    0.7442 C.3       1 <0>        -0.0131
      4 C3         -2.0010   -3.4575    1.9731 C.3       1 <0>        -0.1415
      5 C4         -0.4745   -3.6124    2.2021 C.3       1 <0>        -0.1379
      6 C5          0.0441   -2.2045    1.8168 C.3       1 <0>         0.0321
      7 C6          1.5128   -2.2751    1.3940 C.3       1 <0>        -0.1576
      8 C7          2.0060   -0.8739    1.0273 C.3       1 <0>         0.1290
      9 N2          3.4123   -0.9416    0.6225 N.pl3     1 <0>        -0.7049
     10 C8          4.0796    0.2104    0.2436 C.ar      1 <0>         0.5638
     11 N3          3.4315    1.3664    0.2586 N.ar      1 <0>        -0.5809
     12 C9          4.0343    2.4904   -0.0961 C.ar      1 <0>         0.1933
     13 C10         5.3604    2.4529   -0.4874 C.ar      1 <0>        -0.2745
     14 C11         6.0183    1.2194   -0.4933 C.ar      1 <0>         0.2792
     15 N4          5.3499    0.1300   -0.1190 N.ar      1 <0>        -0.5360
     16 C12         7.4386    1.1263   -0.9042 C.ar      1 <0>        -0.1433
     17 C13         8.1439    2.2696   -1.2864 C.ar      1 <0>        -0.0105
     18 C14         9.4696    2.1303   -1.6616 C.ar      1 <0>        -0.2111
     19 C15        10.0514    0.8761   -1.6474 C.ar      1 <0>         0.1672
     20 N5          9.3651   -0.1898   -1.2829 N.ar      1 <0>        -0.5266
     21 C16         8.0989   -0.1090   -0.9106 C.ar      1 <0>         0.3573
     22 O1          7.4339   -1.2296   -0.5383 O.3       1 <0>        -0.2019
     23 C17         8.0792   -2.4207   -0.6482 C.ar      1 <0>         0.0614
     24 C18         7.8667   -3.2228   -1.7462 C.ar      1 <0>        -0.0710
     25 C19         8.5196   -4.4449   -1.8746 C.ar      1 <0>        -0.1583
     26 C20         9.3955   -4.8826   -0.9052 C.ar      1 <0>         0.1915
     27 C21         9.6345   -4.0830    0.2322 C.ar      1 <0>        -0.0627
     28 C22         8.9731   -2.8367    0.3589 C.ar      1 <0>        -0.0182
     29 C23         9.2162   -2.0399    1.4898 C.ar      1 <0>        -0.0947
     30 C24        10.0855   -2.4717    2.4443 C.ar      1 <0>        -0.1091
     31 C25        10.7399   -3.6953    2.3170 C.ar      1 <0>        -0.1107
     32 C26        10.5206   -4.4980    1.2393 C.ar      1 <0>        -0.1093
     33 N6         10.0436   -6.1125   -1.0477 N.pl3     1 <0>        -0.6326
     34 C27         9.9580   -6.8034   -2.2390 C.2       1 <0>         0.5309
     35 N7         10.4401   -8.0635   -2.4519 N.pl3     1 <0>        -0.6155
     36 H1         10.8960   -8.6222   -1.8031 H         1 <0>         0.4231
     37 C28        10.1562   -8.3951   -3.7663 C.ar      1 <0>         0.0480
     38 C29        10.3923   -9.5161   -4.5476 C.ar      1 <0>        -0.1049
     39 C30         9.9733   -9.5379   -5.8619 C.ar      1 <0>        -0.1069
     40 C31         9.3171   -8.4448   -6.4083 C.ar      1 <0>        -0.1175
     41 C32         9.0742   -7.3235   -5.6473 C.ar      1 <0>        -0.0764
     42 C33         9.4916   -7.2856   -4.3144 C.ar      1 <0>         0.0709
     43 N8          9.3972   -6.3508   -3.3329 N.2       1 <0>        -0.5201
     44 H2         -0.1139    0.1950    0.7171 H         1 <0>         0.1281
     45 H3         -1.6822   -0.0440   -0.0901 H         1 <0>         0.1248
     46 H4         -1.5745   -0.1177    1.6851 H         1 <0>         0.1241
     47 H5         -2.9030   -1.8269    0.8590 H         1 <0>         0.1331
     48 H6         -2.2106   -3.1188   -0.1612 H         1 <0>         0.1314
     49 H7         -2.4752   -2.9929    2.8376 H         1 <0>         0.0997
     50 H8         -2.4578   -4.4227    1.7541 H         1 <0>         0.1136
     51 H9         -0.2570   -3.8363    3.2465 H         1 <0>         0.1184
     52 H10        -0.0566   -4.3756    1.5456 H         1 <0>         0.1008
     53 H11        -0.0787   -1.5135    2.6508 H         1 <0>         0.1458
     54 H12         2.1097   -2.6663    2.2179 H         1 <0>         0.1214
     55 H13         1.6110   -2.9325    0.5301 H         1 <0>         0.0969
     56 H14         1.4091   -0.4828    0.2034 H         1 <0>         0.0601
     57 H15         1.9078   -0.2166    1.8912 H         1 <0>         0.0780
     58 H16         3.8758   -1.7936    0.6199 H         1 <0>         0.4190
     59 H17         3.4962    3.4267   -0.0805 H         1 <0>         0.1715
     60 H18         5.8755    3.3553   -0.7819 H         1 <0>         0.1482
     61 H19         7.6669    3.2386   -1.2896 H         1 <0>         0.1493
     62 H20        10.0440    2.9937   -1.9631 H         1 <0>         0.1479
     63 H21        11.0853    0.7673   -1.9399 H         1 <0>         0.1661
     64 H22         7.1840   -2.8997   -2.5181 H         1 <0>         0.1286
     65 H23         8.3372   -5.0581   -2.7447 H         1 <0>         0.1879
     66 H24         8.7163   -1.0891    1.6013 H         1 <0>         0.1201
     67 H25        10.2709   -1.8569    3.3126 H         1 <0>         0.1241
     68 H26        11.4249   -4.0153    3.0882 H         1 <0>         0.1263
     69 H27        11.0347   -5.4439    1.1537 H         1 <0>         0.1199
     70 H28        10.5535   -6.4805   -0.3092 H         1 <0>         0.4197
     71 H29        10.9034  -10.3701   -4.1283 H         1 <0>         0.1237
     72 H30        10.1578  -10.4116   -6.4693 H         1 <0>         0.1323
     73 H31         8.9945   -8.4735   -7.4386 H         1 <0>         0.1316
     74 H32         8.5624   -6.4761   -6.0791 H         1 <0>         0.1301
     75 H33        -0.3310   -2.0066   -0.1902 H         1 <0>         0.4247
@<TRIPOS>BOND
     1    1    2 1
     2    1   44 1
     3    1   45 1
     4    1   46 1
     5    2    6 1
     6    2    3 1
     7    2   75 1
     8    3    4 1
     9    3   47 1
    10    3   48 1
    11    4    5 1
    12    4   49 1
    13    4   50 1
    14    5    6 1
    15    5   51 1
    16    5   52 1
    17    6    7 1
    18    6   53 1
    19    7    8 1
    20    7   54 1
    21    7   55 1
    22    8    9 1
    23    8   56 1
    24    8   57 1
    25    9   10 1
    26    9   58 1
    27   10   15 ar
    28   10   11 ar
    29   11   12 ar
    30   12   13 ar
    31   12   59 1
    32   13   14 ar
    33   13   60 1
    34   14   15 ar
    35   14   16 1
    36   16   21 ar
    37   16   17 ar
    38   17   18 ar
    39   17   61 1
    40   18   19 ar
    41   18   62 1
    42   19   20 ar
    43   19   63 1
    44   20   21 ar
    45   21   22 1
    46   22   23 1
    47   23   28 ar
    48   23   24 ar
    49   24   25 ar
    50   24   64 1
    51   25   26 ar
    52   25   65 1
    53   26   27 ar
    54   26   33 1
    55   27   32 ar
    56   27   28 ar
    57   28   29 ar
    58   29   30 ar
    59   29   66 1
    60   30   31 ar
    61   30   67 1
    62   31   32 ar
    63   31   68 1
    64   32   69 1
    65   33   34 1
    66   33   70 1
    67   34   43 2
    68   34   35 1
    69   35   36 1
    70   35   37 1
    71   37   42 ar
    72   37   38 ar
    73   38   39 ar
    74   38   71 1
    75   39   40 ar
    76   39   72 1
    77   40   41 ar
    78   40   73 1
    79   41   42 ar
    80   41   74 1
    81   42   43 1
@<TRIPOS>MOLECULE
CHEMBL477817
   52    56     0     0     0
SMALL
USER_CHARGES

@<TRIPOS>ATOM
      1 C1         -0.1879    1.1714   -0.1611 C.3       1 <0>        -0.1062
      2 C2          0.9773    1.4506    0.7529 C.ar      1 <0>        -0.0986
      3 C3          1.9936    2.3195    0.3502 C.ar      1 <0>        -0.0660
      4 C4          2.2363    3.1076   -0.8606 C.2       1 <0>        -0.2117
      5 C5          3.3938    3.7625   -0.6778 C.2       1 <0>         0.0607
      6 N1          3.9127    3.4586    0.5510 N.pl3     1 <0>        -0.5968
      7 H1          4.7429    3.8110    0.9081 H         1 <0>         0.4154
      8 C6          3.0791    2.5770    1.2065 C.ar      1 <0>         0.0653
      9 C7          3.1309    1.9613    2.4530 C.ar      1 <0>        -0.0903
     10 C8          2.1246    1.1064    2.8412 C.ar      1 <0>        -0.1444
     11 C9          1.0439    0.8525    1.9974 C.ar      1 <0>         0.1718
     12 N2          0.0255   -0.0147    2.4099 N.pl3     1 <0>        -0.7103
     13 C10         0.1505   -0.7120    3.5952 C.ar      1 <0>         0.3026
     14 C11        -0.1644   -0.0916    4.8408 C.ar      1 <0>        -0.1473
     15 C12        -0.6161    1.2165    5.0697 C.2       1 <0>        -0.0856
     16 C13        -0.8670    1.6335    6.3445 C.2       1 <0>        -0.1196
     17 S1         -0.4778    0.1903    7.3186 S.3       1 <0>         0.1371
     18 C14        -0.0019   -0.8957    5.9943 C.ar      1 <0>         0.1100
     19 N3          0.4140   -2.1444    5.9461 N.ar      1 <0>        -0.4411
     20 C15         0.7104   -2.7360    4.8079 C.ar      1 <0>         0.1986
     21 C16         0.5834   -2.0442    3.5977 C.ar      1 <0>        -0.0914
     22 C17         0.9014   -2.6963    2.3631 C.1       1 <0>         0.2546
     23 N4          1.1536   -3.2136    1.3837 N.1       1 <0>        -0.3892
     24 C18        -1.3238    2.9009    6.7861 C.2       1 <0>         0.0235
     25 C19        -1.5166    3.1289    8.1082 C.2       1 <0>        -0.1984
     26 C20        -1.9729    4.3951    8.5493 C.2       1 <0>         0.5655
     27 O1         -2.1920    5.2788    7.7407 O.2       1 <0>        -0.5417
     28 N5         -2.1647    4.6218    9.8639 N.am      1 <0>        -0.6169
     29 C21        -1.9342    3.6506   10.9434 C.3       1 <0>         0.0956
     30 C22        -2.3109    4.3426   12.2704 C.3       1 <0>        -0.1331
     31 C23        -3.2685    5.4744   11.8125 C.3       1 <0>        -0.1349
     32 C24        -2.6342    5.8866   10.4581 C.3       1 <0>         0.1036
     33 H2         -0.9792    1.8971    0.0269 H         1 <0>         0.0696
     34 H3          0.1373    1.2492   -1.1986 H         1 <0>         0.0710
     35 H4         -0.5647    0.1661    0.0272 H         1 <0>         0.0569
     36 H5          1.6040    3.1529   -1.7350 H         1 <0>         0.1454
     37 H6          3.8482    4.4303   -1.3946 H         1 <0>         0.1706
     38 H7          3.9613    2.1541    3.1162 H         1 <0>         0.1227
     39 H8          2.1704    0.6310    3.8099 H         1 <0>         0.1215
     40 H9         -0.7680   -0.1258    1.8632 H         1 <0>         0.4174
     41 H10        -0.7645    1.8915    4.2398 H         1 <0>         0.1493
     42 H11         1.0489   -3.7616    4.8075 H         1 <0>         0.1857
     43 H12        -1.5180    3.6847    6.0690 H         1 <0>         0.1570
     44 H13        -1.3223    2.3450    8.8253 H         1 <0>         0.1282
     45 H14        -2.5618    2.7724   10.7922 H         1 <0>         0.0720
     46 H15        -0.8840    3.3596   10.9622 H         1 <0>         0.0719
     47 H16        -2.8246    3.6482   12.9352 H         1 <0>         0.0854
     48 H17        -1.4264    4.7578   12.7535 H         1 <0>         0.0790
     49 H18        -4.2817    5.0969   11.6744 H         1 <0>         0.0778
     50 H19        -3.2557    6.3059   12.5171 H         1 <0>         0.0867
     51 H20        -1.7957    6.5640   10.6199 H         1 <0>         0.0705
     52 H21        -3.3814    6.3530    9.8161 H         1 <0>         0.0808
@<TRIPOS>BOND
     1    1    2 1
     2    1   33 1
     3    1   34 1
     4    1   35 1
     5    2   11 ar
     6    2    3 ar
     7    3    8 ar
     8    3    4 1
     9    4    5 2
    10    4   36 1
    11    5    6 1
    12    5   37 1
    13    6    7 1
    14    6    8 1
    15    8    9 ar
    16    9   10 ar
    17    9   38 1
    18   10   11 ar
    19   10   39 1
    20   11   12 1
    21   12   13 1
    22   12   40 1
    23   13   21 ar
    24   13   14 ar
    25   14   18 ar
    26   14   15 1
    27   15   16 2
    28   15   41 1
    29   16   17 1
    30   16   24 1
    31   17   18 1
    32   18   19 ar
    33   19   20 ar
    34   20   21 ar
    35   20   42 1
    36   21   22 1
    37   22   23 3
    38   24   25 2
    39   24   43 1
    40   25   26 1
    41   25   44 1
    42   26   27 2
    43   26   28 am
    44   28   32 1
    45   28   29 1
    46   29   30 1
    47   29   45 1
    48   29   46 1
    49   30   31 1
    50   30   47 1
    51   30   48 1
    52   31   32 1
    53   31   49 1
    54   31   50 1
    55   32   51 1
    56   32   52 1
@<TRIPOS>MOLECULE
CHEMBL405630
   39    41     0     0     0
SMALL
USER_CHARGES

@<TRIPOS>ATOM
      1 C1          2.5452    1.1438    0.6818 C.3       1 <0>        -0.1127
      2 C2          1.8479   -0.1762    0.4757 C.ar      1 <0>        -0.0920
      3 C3          2.1099   -0.9275   -0.6531 C.ar      1 <0>        -0.1108
      4 C4          1.4701   -2.1386   -0.8433 C.ar      1 <0>        -0.1086
      5 C5          0.5667   -2.6018    0.0957 C.ar      1 <0>        -0.1107
      6 C6          0.3006   -1.8556    1.2269 C.ar      1 <0>        -0.0688
      7 C7          0.9454   -0.6412    1.4235 C.ar      1 <0>         0.1236
      8 N1          0.6822    0.1144    2.5704 N.am      1 <0>        -0.6591
      9 C8          0.6558   -0.4818    3.7788 C.2       1 <0>         0.5987
     10 O1          0.9225   -1.6656    3.8796 O.2       1 <0>        -0.4798
     11 C9          0.3071    0.2929    4.9688 C.2       1 <0>        -0.2570
     12 C10         0.2241   -0.1083    6.2951 C.2       1 <0>         0.1508
     13 N2         -0.1160    0.8127    7.1610 N.2       1 <0>        -0.5465
     14 C11        -0.3653    2.0547    6.7853 C.2       1 <0>         0.2266
     15 S1         -0.1226    2.0196    5.1203 S.3       1 <0>         0.2668
     16 N3         -0.7315    3.1278    7.5724 N.pl3     1 <0>        -0.5770
     17 C12        -1.0057    2.9380    8.9243 C.ar      1 <0>         0.4133
     18 C13        -1.0756    1.6490    9.4505 C.ar      1 <0>        -0.1225
     19 C14        -1.3510    1.5140   10.8024 C.ar      1 <0>        -0.0098
     20 C15        -1.5400    2.6688   11.5481 C.ar      1 <0>         0.1019
     21 N4         -1.4562    3.8496   10.9677 N.ar      1 <0>        -0.1930
     22 N5         -1.1961    3.9821    9.7178 N.ar      1 <0>        -0.3221
     23 C16        -0.6844   -2.3609    2.2494 C.3       1 <0>        -0.1065
     24 H1          3.4772    0.9817    1.2233 H         1 <0>         0.0744
     25 H2          2.7613    1.5956   -0.2863 H         1 <0>         0.0754
     26 H3          1.9014    1.8088    1.2576 H         1 <0>         0.0563
     27 H4          2.8149   -0.5686   -1.3883 H         1 <0>         0.1303
     28 H5          1.6762   -2.7239   -1.7272 H         1 <0>         0.1295
     29 H6          0.0684   -3.5479   -0.0560 H         1 <0>         0.1299
     30 H7          0.5185    1.0676    2.4962 H         1 <0>         0.4047
     31 H8          0.4287   -1.1251    6.5962 H         1 <0>         0.2085
     32 H9         -0.7978    4.0141    7.1838 H         1 <0>         0.4510
     33 H10        -0.9203    0.7827    8.8245 H         1 <0>         0.2306
     34 H11        -1.4168    0.5387   11.2617 H         1 <0>         0.1998
     35 H12        -1.7563    2.6003   12.6040 H         1 <0>         0.2309
     36 H13        -0.1910   -3.0774    2.9061 H         1 <0>         0.0922
     37 H14        -1.0569   -1.5237    2.8398 H         1 <0>         0.0495
     38 H15        -1.5177   -2.8469    1.7420 H         1 <0>         0.0633
     39 H16        -1.1412    4.8744    9.3414 H         1 <0>         0.4692
@<TRIPOS>BOND
     1    1    2 1
     2    1   24 1
     3    1   25 1
     4    1   26 1
     5    2    7 ar
     6    2    3 ar
     7    3    4 ar
     8    3   27 1
     9    4    5 ar
    10    4   28 1
    11    5    6 ar
    12    5   29 1
    13    6    7 ar
    14    6   23 1
    15    7    8 1
    16    8    9 am
    17    8   30 1
    18    9   10 2
    19    9   11 1
    20   11   15 1
    21   11   12 2
    22   12   13 1
    23   12   31 1
    24   13   14 2
    25   14   15 1
    26   14   16 1
    27   16   17 1
    28   16   32 1
    29   17   18 ar
    30   17   22 ar
    31   18   33 1
    32   18   19 ar
    33   19   34 1
    34   19   20 ar
    35   20   35 1
    36   20   21 ar
    37   21   22 ar
    38   22   39 1
    39   23   36 1
    40   23   37 1
    41   23   38 1
@<TRIPOS>MOLECULE
CHEMBL405630__1
   38    40     0     0     0
SMALL
USER_CHARGES

@<TRIPOS>ATOM
      1 C1          1.9390    0.6910    0.4986 C.3       1 <0>        -0.1115
      2 C2          0.9274   -0.3930    0.2290 C.ar      1 <0>        -0.0971
      3 C3          0.9826   -1.1127   -0.9484 C.ar      1 <0>        -0.1130
      4 C4          0.0544   -2.1073   -1.1968 C.ar      1 <0>        -0.1177
      5 C5         -0.9314   -2.3849   -0.2676 C.ar      1 <0>        -0.1120
      6 C6         -0.9919   -1.6692    0.9121 C.ar      1 <0>        -0.0701
      7 C7         -0.0580   -0.6733    1.1669 C.ar      1 <0>         0.1366
      8 N1         -0.1131    0.0497    2.3627 N.am      1 <0>        -0.6684
      9 C8         -0.2850   -0.5960    3.5332 C.2       1 <0>         0.6126
     10 O1         -0.3298   -1.8125    3.5565 O.2       1 <0>        -0.5001
     11 C9         -0.4177    0.1645    4.7750 C.2       1 <0>        -0.3115
     12 C10        -0.5939   -0.2861    6.0760 C.2       1 <0>         0.1748
     13 N2         -0.6826    0.6340    7.0030 N.2       1 <0>        -0.5246
     14 C11        -0.6074    1.9199    6.7084 C.2       1 <0>         0.3058
     15 S1         -0.3903    1.9303    5.0396 S.3       1 <0>         0.1422
     16 N3         -0.6827    2.9984    7.5665 N.pl3     1 <0>        -0.5886
     17 C12        -0.9735    2.7975    8.9133 C.ar      1 <0>         0.3008
     18 C13        -1.1666    3.8896    9.7587 C.ar      1 <0>        -0.1512
     19 C14        -1.4537    3.6360   11.0906 C.ar      1 <0>        -0.0851
     20 C15        -1.5313    2.3122   11.5007 C.ar      1 <0>         0.0112
     21 N4         -1.3338    1.3404   10.6324 N.ar      1 <0>        -0.2077
     22 N5         -1.0734    1.5679    9.3963 N.ar      1 <0>        -0.2282
     23 C16        -2.0668   -1.9721    1.9239 C.3       1 <0>        -0.1068
     24 H1          2.8023    0.2636    1.0086 H         1 <0>         0.0731
     25 H2          2.2571    1.1339   -0.4452 H         1 <0>         0.0716
     26 H3          1.4893    1.4594    1.1273 H         1 <0>         0.0591
     27 H4          1.7512   -0.8983   -1.6761 H         1 <0>         0.1264
     28 H5          0.0993   -2.6681   -2.1186 H         1 <0>         0.1251
     29 H6         -1.6550   -3.1620   -0.4647 H         1 <0>         0.1264
     30 H7         -0.0276    1.0158    2.3497 H         1 <0>         0.4052
     31 H8         -0.6550   -1.3385    6.3107 H         1 <0>         0.1906
     32 H9         -0.5330    3.8962    7.2313 H         1 <0>         0.4401
     33 H10        -1.0943    4.9011    9.3873 H         1 <0>         0.1532
     34 H11        -1.6120    4.4446   11.7889 H         1 <0>         0.1574
     35 H12        -1.7532    2.0785   12.5315 H         1 <0>         0.1764
     36 H13        -1.7611   -2.8208    2.5358 H         1 <0>         0.0929
     37 H14        -2.2215   -1.1016    2.5613 H         1 <0>         0.0540
     38 H15        -2.9954   -2.2131    1.4064 H         1 <0>         0.0582
@<TRIPOS>BOND
     1    1    2 1
     2    1   24 1
     3    1   25 1
     4    1   26 1
     5    2    7 ar
     6    2    3 ar
     7    3    4 ar
     8    3   27 1
     9    4    5 ar
    10    4   28 1
    11    5    6 ar
    12    5   29 1
    13    6    7 ar
    14    6   23 1
    15    7    8 1
    16    8    9 am
    17    8   30 1
    18    9   10 2
    19    9   11 1
    20   11   15 1
    21   11   12 2
    22   12   13 1
    23   12   31 1
    24   13   14 2
    25   14   15 1
    26   14   16 1
    27   16   17 1
    28   16   32 1
    29   17   22 ar
    30   17   18 ar
    31   18   19 ar
    32   18   33 1
    33   19   20 ar
    34   19   34 1
    35   20   21 ar
    36   20   35 1
    37   21   22 ar
    38   23   36 1
    39   23   37 1
    40   23   38 1
@<TRIPOS>MOLECULE
CHEMBL216240
   57    60     0     0     0
SMALL
USER_CHARGES

@<TRIPOS>ATOM
      1 C1          3.3232    6.6663    1.8627 C.3       1 <0>        -0.1166
      2 C2          2.6096    7.9892    1.9720 C.ar      1 <0>        -0.0852
      3 C3          2.9229    9.0175    1.1042 C.ar      1 <0>        -0.1055
      4 C4          2.2691   10.2317    1.2033 C.ar      1 <0>        -0.1070
      5 C5          1.2993   10.4216    2.1710 C.ar      1 <0>        -0.1064
      6 C6          0.9812    9.3975    3.0425 C.ar      1 <0>        -0.0243
      7 C7          1.6328    8.1736    2.9411 C.ar      1 <0>         0.1460
      8 N1          1.3088    7.1322    3.8172 N.am      1 <0>        -0.6734
      9 C8          1.3105    7.3459    5.1479 C.2       1 <0>         0.6132
     10 O1          1.4945    8.4677    5.5841 O.2       1 <0>        -0.4901
     11 C9          1.0914    6.2305    6.0678 C.2       1 <0>        -0.3094
     12 C10         1.0469    6.2210    7.4551 C.2       1 <0>         0.1721
     13 N2          0.8307    5.0610    8.0220 N.2       1 <0>        -0.5181
     14 C11         0.6647    3.9632    7.3059 C.2       1 <0>         0.3122
     15 S1          0.7990    4.5039    5.7179 S.3       1 <0>         0.1342
     16 N3          0.4307    2.6782    7.7540 N.pl3     1 <0>        -0.5904
     17 C12         0.2360    2.4397    9.1081 C.ar      1 <0>         0.4409
     18 C13        -0.1114    1.1699    9.5582 C.ar      1 <0>        -0.3402
     19 C14        -0.2952    0.9826   10.9250 C.ar      1 <0>         0.4680
     20 N4         -0.1332    2.0180   11.7467 N.ar      1 <0>        -0.5926
     21 C15         0.1962    3.2055   11.2810 C.ar      1 <0>         0.3938
     22 N5          0.3844    3.4216    9.9951 N.ar      1 <0>        -0.5459
     23 C16         0.3690    4.3484   12.2480 C.3       1 <0>        -0.0832
     24 N6         -0.6424   -0.2634   11.4237 N.pl3     1 <0>        -0.5953
     25 C17        -1.0578   -0.4200   12.8243 C.3       1 <0>         0.1254
     26 C18        -2.4141   -1.1313   12.8597 C.3       1 <0>        -0.1306
     27 C19        -2.3167   -2.4459   12.0823 C.3       1 <0>        -0.0878
     28 C20        -1.9633   -2.1523   10.6225 C.3       1 <0>        -0.1268
     29 C21        -0.6077   -1.4516   10.5601 C.3       1 <0>         0.1198
     30 C22        -3.6600   -3.1757   12.1447 C.3       1 <0>         0.0795
     31 O2         -3.5367   -4.4547   11.5193 O.3       1 <0>        -0.5737
     32 Cl1        -0.2357    9.6364    4.2572 Cl        1 <0>        -0.0432
     33 H1          2.7794    6.0156    1.1779 H         1 <0>         0.0754
     34 H2          4.3329    6.8283    1.4853 H         1 <0>         0.0754
     35 H3          3.3735    6.1983    2.8458 H         1 <0>         0.0676
     36 H4          3.6799    8.8729    0.3477 H         1 <0>         0.1337
     37 H5          2.5165   11.0338    0.5238 H         1 <0>         0.1350
     38 H6          0.7904   11.3712    2.2457 H         1 <0>         0.1371
     39 H7          1.0829    6.2563    3.4669 H         1 <0>         0.4086
     40 H8          1.1837    7.1217    8.0352 H         1 <0>         0.1884
     41 H9          0.4023    1.9422    7.1228 H         1 <0>         0.4388
     42 H10        -0.2354    0.3511    8.8651 H         1 <0>         0.1422
     43 H11         1.4056    4.3877   12.5826 H         1 <0>         0.0866
     44 H12         0.1110    5.2849   11.7534 H         1 <0>         0.0890
     45 H13        -0.2848    4.1993   13.1073 H         1 <0>         0.0844
     46 H14        -0.3187   -1.0156   13.3602 H         1 <0>         0.0662
     47 H15        -1.1474    0.5611   13.2907 H         1 <0>         0.1000
     48 H16        -2.6887   -1.3396   13.8938 H         1 <0>         0.0795
     49 H17        -3.1712   -0.4938   12.4031 H         1 <0>         0.0685
     50 H18        -1.5422   -3.0727   12.5244 H         1 <0>         0.0810
     51 H19        -1.9171   -3.0873   10.0642 H         1 <0>         0.0860
     52 H20        -2.7247   -1.5052   10.1869 H         1 <0>         0.0657
     53 H21        -0.4004   -1.1509    9.5331 H         1 <0>         0.0856
     54 H22         0.1688   -2.1331   10.9072 H         1 <0>         0.0718
     55 H23        -3.9540   -3.3072   13.1860 H         1 <0>         0.0473
     56 H24        -4.4170   -2.5885   11.6248 H         1 <0>         0.0453
     57 H25        -4.3523   -4.9741   11.5221 H         1 <0>         0.3814
@<TRIPOS>BOND
     1    1    2 1
     2    1   33 1
     3    1   34 1
     4    1   35 1
     5    2    7 ar
     6    2    3 ar
     7    3    4 ar
     8    3   36 1
     9    4    5 ar
    10    4   37 1
    11    5    6 ar
    12    5   38 1
    13    6    7 ar
    14    6   32 1
    15    7    8 1
    16    8    9 am
    17    8   39 1
    18    9   10 2
    19    9   11 1
    20   11   15 1
    21   11   12 2
    22   12   13 1
    23   12   40 1
    24   13   14 2
    25   14   15 1
    26   14   16 1
    27   16   17 1
    28   16   41 1
    29   17   22 ar
    30   17   18 ar
    31   18   19 ar
    32   18   42 1
    33   19   20 ar
    34   19   24 1
    35   20   21 ar
    36   21   22 ar
    37   21   23 1
    38   23   43 1
    39   23   44 1
    40   23   45 1
    41   24   29 1
    42   24   25 1
    43   25   26 1
    44   25   46 1
    45   25   47 1
    46   26   27 1
    47   26   48 1
    48   26   49 1
    49   27   28 1
    50   27   30 1
    51   27   50 1
    52   28   29 1
    53   28   51 1
    54   28   52 1
    55   29   53 1
    56   29   54 1
    57   30   31 1
    58   30   55 1
    59   30   56 1
    60   31   57 1
@<TRIPOS>MOLECULE
CHEMBL216240__1
   58    61     0     0     0
SMALL
USER_CHARGES

@<TRIPOS>ATOM
      1 C1          3.2627    6.6602    1.8386 C.3       1 <0>        -0.1168
      2 C2          2.5712    7.9931    1.9649 C.ar      1 <0>        -0.0823
      3 C3          2.8878    9.0213    1.0981 C.ar      1 <0>        -0.1038
      4 C4          2.2543   10.2447    1.2128 C.ar      1 <0>        -0.1008
      5 C5          1.3014   10.4442    2.1953 C.ar      1 <0>        -0.1050
      6 C6          0.9802    9.4205    3.0660 C.ar      1 <0>        -0.0226
      7 C7          1.6113    8.1873    2.9489 C.ar      1 <0>         0.1373
      8 N1          1.2839    7.1463    3.8241 N.am      1 <0>        -0.6678
      9 C8          1.3078    7.3528    5.1558 C.2       1 <0>         0.6037
     10 O1          1.5152    8.4693    5.5951 O.2       1 <0>        -0.4760
     11 C9          1.0848    6.2359    6.0730 C.2       1 <0>        -0.2697
     12 C10         1.0599    6.2197    7.4607 C.2       1 <0>         0.1522
     13 N2          0.8337    5.0602    8.0247 N.2       1 <0>        -0.5062
     14 C11         0.6405    3.9689    7.3054 C.2       1 <0>         0.2464
     15 S1          0.7611    4.5159    5.7184 S.3       1 <0>         0.2035
     16 N3          0.3929    2.6853    7.7501 N.pl3     1 <0>        -0.5649
     17 C12         0.2176    2.4419    9.1061 C.ar      1 <0>         0.4993
     18 C13        -0.1365    1.1742    9.5553 C.ar      1 <0>        -0.3173
     19 C14        -0.3003    0.9817   10.9244 C.ar      1 <0>         0.4938
     20 N4         -0.1136    2.0109   11.7483 N.ar      1 <0>        -0.5715
     21 C15         0.2215    3.1973   11.2831 C.ar      1 <0>         0.4500
     22 N5          0.3912    3.4178    9.9956 N.ar      1 <0>        -0.4877
     23 C16         0.4226    4.3333   12.2527 C.3       1 <0>        -0.1252
     24 N6         -0.6531   -0.2629   11.4224 N.pl3     1 <0>        -0.5728
     25 C17        -0.9624   -0.4385   12.8480 C.3       1 <0>         0.0982
     26 C18        -2.3373   -1.1020   12.9761 C.3       1 <0>        -0.1326
     27 C19        -2.3503   -2.4001   12.1655 C.3       1 <0>        -0.0921
     28 C20        -2.1023   -2.0839   10.6888 C.3       1 <0>        -0.1316
     29 C21        -0.7308   -1.4303   10.5336 C.3       1 <0>         0.1073
     30 C22        -3.7107   -3.0832   12.3191 C.3       1 <0>         0.0788
     31 O2         -3.6846   -4.3503   11.6588 O.3       1 <0>        -0.5734
     32 Cl1        -0.2155    9.6714    4.2993 Cl        1 <0>        -0.0453
     33 H1          2.6992    6.0215    1.1583 H         1 <0>         0.0768
     34 H2          4.2693    6.8087    1.4475 H         1 <0>         0.0778
     35 H3          3.3199    6.1861    2.8184 H         1 <0>         0.0648
     36 H4          3.6316    8.8691    0.3299 H         1 <0>         0.1365
     37 H5          2.5042   11.0466    0.5340 H         1 <0>         0.1382
     38 H6          0.8084   11.4011    2.2823 H         1 <0>         0.1396
     39 H7          1.0396    6.2758    3.4726 H         1 <0>         0.4083
     40 H8          1.2189    7.1150    8.0435 H         1 <0>         0.1978
     41 H9          0.3415    1.9536    7.1154 H         1 <0>         0.4526
     42 H10        -0.2808    0.3603    8.8602 H         1 <0>         0.1843
     43 H11         1.4648    4.3595   12.5706 H         1 <0>         0.1246
     44 H12         0.1671    5.2750   11.7670 H         1 <0>         0.1301
     45 H13        -0.2188    4.1870   13.1218 H         1 <0>         0.1047
     46 H14        -0.2061   -1.0726   13.3105 H         1 <0>         0.1047
     47 H15        -0.9785    0.5336   13.3408 H         1 <0>         0.0821
     48 H16        -2.5371   -1.3255   14.0241 H         1 <0>         0.0982
     49 H17        -3.1038   -0.4273   12.5949 H         1 <0>         0.0780
     50 H18        -1.5672   -3.0644   12.5311 H         1 <0>         0.0895
     51 H19        -2.1350   -3.0062   10.1088 H         1 <0>         0.1038
     52 H20        -2.8711   -1.4000   10.3291 H         1 <0>         0.0735
     53 H21        -0.5940   -1.1123    9.5000 H         1 <0>         0.1011
     54 H22         0.0449   -2.1470   10.8033 H         1 <0>         0.0995
     55 H23        -3.9264   -3.2294   13.3774 H         1 <0>         0.0522
     56 H24        -4.4839   -2.4573   11.8737 H         1 <0>         0.0480
     57 H25        -4.5162   -4.8405   11.7154 H         1 <0>         0.3895
     58 H26        -0.2260    1.8857   12.7036 H         1 <0>         0.4388
@<TRIPOS>BOND
     1    1    2 1
     2    1   33 1
     3    1   34 1
     4    1   35 1
     5    2    7 ar
     6    2    3 ar
     7    3    4 ar
     8    3   36 1
     9    4    5 ar
    10    4   37 1
    11    5    6 ar
    12    5   38 1
    13    6    7 ar
    14    6   32 1
    15    7    8 1
    16    8    9 am
    17    8   39 1
    18    9   10 2
    19    9   11 1
    20   11   15 1
    21   11   12 2
    22   12   13 1
    23   12   40 1
    24   13   14 2
    25   14   15 1
    26   14   16 1
    27   16   17 1
    28   16   41 1
    29   17   18 ar
    30   17   22 ar
    31   18   42 1
    32   18   19 ar
    33   19   24 1
    34   19   20 ar
    35   20   58 1
    36   20   21 ar
    37   21   23 1
    38   21   22 ar
    39   23   43 1
    40   23   44 1
    41   23   45 1
    42   24   29 1
    43   24   25 1
    44   25   26 1
    45   25   46 1
    46   25   47 1
    47   26   27 1
    48   26   48 1
    49   26   49 1
    50   27   28 1
    51   27   30 1
    52   27   50 1
    53   28   29 1
    54   28   51 1
    55   28   52 1
    56   29   53 1
    57   29   54 1
    58   30   31 1
    59   30   55 1
    60   30   56 1
    61   31   57 1
@<TRIPOS>MOLECULE
CHEMBL216240__2
   58    61     0     0     0
SMALL
USER_CHARGES

@<TRIPOS>ATOM
      1 C1         -1.9099    1.6429    0.2175 C.3       1 <0>        -0.1170
      2 C2         -1.4807    0.2107    0.0288 C.ar      1 <0>        -0.0814
      3 C3         -1.6580   -0.4089   -1.1932 C.ar      1 <0>        -0.1035
      4 C4         -1.2649   -1.7229   -1.3678 C.ar      1 <0>        -0.0991
      5 C5         -0.6928   -2.4219   -0.3204 C.ar      1 <0>        -0.1046
      6 C6         -0.5129   -1.8085    0.9047 C.ar      1 <0>        -0.0220
      7 C7         -0.9017   -0.4855    1.0811 C.ar      1 <0>         0.1349
      8 N1         -0.7151    0.1411    2.3179 N.am      1 <0>        -0.6661
      9 C8         -1.1704   -0.4422    3.4444 C.2       1 <0>         0.6015
     10 O1         -1.6536   -1.5589    3.3993 O.2       1 <0>        -0.4715
     11 C9         -1.0841    0.2661    4.7208 C.2       1 <0>        -0.2631
     12 C10        -1.4797   -0.1390    5.9881 C.2       1 <0>         0.1516
     13 N2         -1.2776    0.7136    6.9607 N.2       1 <0>        -0.5499
     14 C11        -0.7265    1.8940    6.7402 C.2       1 <0>         0.2507
     15 S1         -0.4335    1.8893    5.0829 S.3       1 <0>         0.2432
     16 N3         -0.4509    2.8922    7.6536 N.pl3     1 <0>        -0.5870
     17 C12        -0.6755    2.6764    9.0069 C.ar      1 <0>         0.4538
     18 C13        -1.0374    1.4153    9.4699 C.ar      1 <0>        -0.2923
     19 C14        -1.2512    1.2508   10.8352 C.ar      1 <0>         0.4935
     20 N4         -1.1028    2.2989   11.6434 N.ar      1 <0>        -0.5336
     21 C15        -0.7589    3.4775   11.1658 C.ar      1 <0>         0.4536
     22 N5         -0.5423    3.6720    9.8809 N.ar      1 <0>        -0.5671
     23 C16        -0.6025    4.6353   12.1176 C.3       1 <0>        -0.1252
     24 N6         -1.6138    0.0143   11.3464 N.pl3     1 <0>        -0.5351
     25 C17        -2.0546   -0.1189   12.7416 C.3       1 <0>         0.1040
     26 C18        -3.4152   -0.8225   12.7638 C.3       1 <0>        -0.1320
     27 C19        -3.3113   -2.1493   12.0081 C.3       1 <0>        -0.0931
     28 C20        -2.9307   -1.8796   10.5505 C.3       1 <0>        -0.1278
     29 C21        -1.5705   -1.1869   10.5015 C.3       1 <0>         0.0976
     30 C22        -4.6594   -2.8711   12.0577 C.3       1 <0>         0.0795
     31 O2         -4.5321   -4.1600   11.4540 O.3       1 <0>        -0.5733
     32 Cl1         0.2046   -2.6864    2.2193 Cl        1 <0>        -0.0451
     33 H1         -1.0837    2.3064   -0.0380 H         1 <0>         0.0772
     34 H2         -2.7604    1.8557   -0.4301 H         1 <0>         0.0785
     35 H3         -2.1959    1.8026    1.2571 H         1 <0>         0.0640
     36 H4         -2.1047    0.1337   -2.0132 H         1 <0>         0.1372
     37 H5         -1.4051   -2.2046   -2.3241 H         1 <0>         0.1390
     38 H6         -0.3868   -3.4482   -0.4600 H         1 <0>         0.1403
     39 H7         -0.2579    0.9953    2.3647 H         1 <0>         0.4082
     40 H8         -1.9300   -1.1051    6.1623 H         1 <0>         0.2034
     41 H9         -0.1004    3.7442    7.3499 H         1 <0>         0.4458
     42 H10        -1.1497    0.5858    8.7875 H         1 <0>         0.2227
     43 H11         0.4269    4.6764   12.4738 H         1 <0>         0.1242
     44 H12        -0.8461    5.5646   11.6026 H         1 <0>         0.1071
     45 H13        -1.2751    4.5025   12.9650 H         1 <0>         0.1271
     46 H14        -1.3284   -0.7101   13.2994 H         1 <0>         0.0910
     47 H15        -2.1471    0.8696   13.1916 H         1 <0>         0.1088
     48 H16        -3.7091   -1.0138   13.7959 H         1 <0>         0.0938
     49 H17        -4.1607   -0.1882   12.2844 H         1 <0>         0.0741
     50 H18        -2.5481   -2.7733   12.4732 H         1 <0>         0.0873
     51 H19        -2.8797   -2.8231   10.0073 H         1 <0>         0.1006
     52 H20        -3.6808   -1.2352   10.0919 H         1 <0>         0.0721
     53 H21        -1.3435   -0.9029    9.4739 H         1 <0>         0.1009
     54 H22        -0.8038   -1.8671   10.8725 H         1 <0>         0.0961
     55 H23        -4.9724   -2.9853   13.0956 H         1 <0>         0.0512
     56 H24        -5.4039   -2.2880   11.5158 H         1 <0>         0.0469
     57 H25        -5.3504   -4.6751   11.4502 H         1 <0>         0.3873
     58 H26        -0.2864    4.5534    9.5668 H         1 <0>         0.4413
@<TRIPOS>BOND
     1    1    2 1
     2    1   33 1
     3    1   34 1
     4    1   35 1
     5    2    7 ar
     6    2    3 ar
     7    3    4 ar
     8    3   36 1
     9    4    5 ar
    10    4   37 1
    11    5    6 ar
    12    5   38 1
    13    6    7 ar
    14    6   32 1
    15    7    8 1
    16    8    9 am
    17    8   39 1
    18    9   10 2
    19    9   11 1
    20   11   15 1
    21   11   12 2
    22   12   13 1
    23   12   40 1
    24   13   14 2
    25   14   15 1
    26   14   16 1
    27   16   17 1
    28   16   41 1
    29   17   22 ar
    30   17   18 ar
    31   18   19 ar
    32   18   42 1
    33   19   20 ar
    34   19   24 1
    35   20   21 ar
    36   21   22 ar
    37   21   23 1
    38   22   58 1
    39   23   43 1
    40   23   44 1
    41   23   45 1
    42   24   29 1
    43   24   25 1
    44   25   26 1
    45   25   46 1
    46   25   47 1
    47   26   27 1
    48   26   48 1
    49   26   49 1
    50   27   28 1
    51   27   30 1
    52   27   50 1
    53   28   29 1
    54   28   51 1
    55   28   52 1
    56   29   53 1
    57   29   54 1
    58   30   31 1
    59   30   55 1
    60   30   56 1
    61   31   57 1
@<TRIPOS>MOLECULE
CHEMBL1421
   60    63     0     0     0
SMALL
USER_CHARGES

@<TRIPOS>ATOM
      1 C1         -2.0700    1.6928    0.2333 C.3       1 <0>        -0.1170
      2 C2         -1.6482    0.2604    0.0301 C.ar      1 <0>        -0.0813
      3 C3         -1.8479   -0.3525   -1.1919 C.ar      1 <0>        -0.1034
      4 C4         -1.4615   -1.6665   -1.3798 C.ar      1 <0>        -0.0990
      5 C5         -0.8738   -2.3725   -0.3459 C.ar      1 <0>        -0.1046
      6 C6         -0.6714   -1.7660    0.8791 C.ar      1 <0>        -0.0220
      7 C7         -1.0534   -0.4428    1.0688 C.ar      1 <0>         0.1347
      8 N1         -0.8441    0.1769    2.3055 N.am      1 <0>        -0.6659
      9 C8         -1.2819   -0.4110    3.4365 C.2       1 <0>         0.6018
     10 O1         -1.7689   -1.5261    3.3939 O.2       1 <0>        -0.4722
     11 C9         -1.1720    0.2905    4.7149 C.2       1 <0>        -0.2635
     12 C10        -1.5472   -0.1201    5.9866 C.2       1 <0>         0.1512
     13 N2         -1.3262    0.7270    6.9599 N.2       1 <0>        -0.5510
     14 C11        -0.7756    1.9070    6.7361 C.2       1 <0>         0.2513
     15 S1         -0.5107    1.9100    5.0742 S.3       1 <0>         0.2445
     16 N3         -0.4817    2.8997    7.6498 N.pl3     1 <0>        -0.5870
     17 C12        -0.6908    2.6801    9.0050 C.ar      1 <0>         0.4543
     18 C13        -1.0534    1.4192    9.4679 C.ar      1 <0>        -0.2926
     19 C14        -1.2512    1.2508   10.8352 C.ar      1 <0>         0.4935
     20 N4         -1.0875    2.2952   11.6453 N.ar      1 <0>        -0.5328
     21 C15        -0.7435    3.4737   11.1677 C.ar      1 <0>         0.4541
     22 N5         -0.5417    3.6719    9.8809 N.ar      1 <0>        -0.5672
     23 C16        -0.5694    4.6273   12.1217 C.3       1 <0>        -0.1251
     24 N6         -1.6138    0.0143   11.3464 N.pl3     1 <0>        -0.5370
     25 C17        -2.0559   -0.1253   12.7422 C.3       1 <0>         0.1090
     26 C18        -3.3866   -0.8852   12.7576 C.3       1 <0>         0.0383
     27 N7         -3.2335   -2.1493   12.0251 N.3       1 <0>        -0.5289
     28 C19        -2.9165   -1.9105   10.6107 C.3       1 <0>         0.0343
     29 C20        -1.5725   -1.1917   10.5056 C.3       1 <0>         0.1057
     30 C21        -4.4334   -2.9856   12.1619 C.3       1 <0>         0.0545
     31 C22        -4.1483   -4.3816   11.6043 C.3       1 <0>         0.0776
     32 O2         -3.1500   -5.0191   12.4038 O.3       1 <0>        -0.5606
     33 Cl1         0.0658   -2.6526    2.1768 Cl        1 <0>        -0.0453
     34 H1         -1.2464    2.3553   -0.0328 H         1 <0>         0.0773
     35 H2         -2.9308    1.9112   -0.3987 H         1 <0>         0.0785
     36 H3         -2.3379    1.8478    1.2784 H         1 <0>         0.0640
     37 H4         -2.3069    0.1956   -2.0014 H         1 <0>         0.1372
     38 H5         -1.6193   -2.1430   -2.3361 H         1 <0>         0.1391
     39 H6         -0.5731   -3.3989   -0.4959 H         1 <0>         0.1403
     40 H7         -0.3838    1.0296    2.3489 H         1 <0>         0.4083
     41 H8         -1.9972   -1.0858    6.1634 H         1 <0>         0.2027
     42 H9         -0.1293    3.7505    7.3451 H         1 <0>         0.4460
     43 H10        -1.1784    0.5927    8.7841 H         1 <0>         0.2218
     44 H11         0.4644    4.6619   12.4652 H         1 <0>         0.1245
     45 H12        -0.8146    5.5596   11.6130 H         1 <0>         0.1071
     46 H13        -1.2322    4.4948   12.9768 H         1 <0>         0.1273
     47 H14        -1.3096   -0.6823   13.3087 H         1 <0>         0.0989
     48 H15        -2.1929    0.8619   13.1834 H         1 <0>         0.1094
     49 H16        -3.6740   -1.0944   13.7880 H         1 <0>         0.1036
     50 H17        -4.1569   -0.2794   12.2806 H         1 <0>         0.0428
     51 H18        -2.8631   -2.8634   10.0841 H         1 <0>         0.1043
     52 H19        -3.6935   -1.2904   10.1636 H         1 <0>         0.0450
     53 H20        -1.3900   -0.9091    9.4688 H         1 <0>         0.1029
     54 H21        -0.7788   -1.8532   10.8529 H         1 <0>         0.1042
     55 H22        -4.7041   -3.0633   13.2149 H         1 <0>         0.0912
     56 H23        -5.2561   -2.5340   11.6075 H         1 <0>         0.0533
     57 H24        -5.0627   -4.9745   11.6240 H         1 <0>         0.0547
     58 H25        -3.7921   -4.2970   10.5776 H         1 <0>         0.0454
     59 H26        -2.9188   -5.9101   12.1076 H         1 <0>         0.3805
     60 H27        -0.2852    4.5531    9.5669 H         1 <0>         0.4414
@<TRIPOS>BOND
     1    1    2 1
     2    1   34 1
     3    1   35 1
     4    1   36 1
     5    2    7 ar
     6    2    3 ar
     7    3    4 ar
     8    3   37 1
     9    4    5 ar
    10    4   38 1
    11    5    6 ar
    12    5   39 1
    13    6    7 ar
    14    6   33 1
    15    7    8 1
    16    8    9 am
    17    8   40 1
    18    9   10 2
    19    9   11 1
    20   11   15 1
    21   11   12 2
    22   12   13 1
    23   12   41 1
    24   13   14 2
    25   14   15 1
    26   14   16 1
    27   16   17 1
    28   16   42 1
    29   17   22 ar
    30   17   18 ar
    31   18   19 ar
    32   18   43 1
    33   19   20 ar
    34   19   24 1
    35   20   21 ar
    36   21   22 ar
    37   21   23 1
    38   22   60 1
    39   23   44 1
    40   23   45 1
    41   23   46 1
    42   24   29 1
    43   24   25 1
    44   25   26 1
    45   25   47 1
    46   25   48 1
    47   26   27 1
    48   26   49 1
    49   26   50 1
    50   27   28 1
    51   27   30 1
    52   28   29 1
    53   28   51 1
    54   28   52 1
    55   29   53 1
    56   29   54 1
    57   30   31 1
    58   30   55 1
    59   30   56 1
    60   31   32 1
    61   31   57 1
    62   31   58 1
    63   32   59 1
@<TRIPOS>MOLECULE
CHEMBL1421__1
   60    63     0     0     0
SMALL
USER_CHARGES

@<TRIPOS>ATOM
      1 C1          3.4124    6.6512    1.8897 C.3       1 <0>        -0.1163
      2 C2          2.6920    7.9714    1.9854 C.ar      1 <0>        -0.0843
      3 C3          3.0121    8.9981    1.1182 C.ar      1 <0>        -0.1045
      4 C4          2.3522   10.2099    1.2048 C.ar      1 <0>        -0.1038
      5 C5          1.3694   10.3990    2.1594 C.ar      1 <0>        -0.1055
      6 C6          1.0444    9.3766    3.0303 C.ar      1 <0>        -0.0236
      7 C7          1.7022    8.1551    2.9413 C.ar      1 <0>         0.1417
      8 N1          1.3714    7.1153    3.8168 N.am      1 <0>        -0.6710
      9 C8          1.3553    7.3335    5.1467 C.2       1 <0>         0.6087
     10 O1          1.5292    8.4574    5.5814 O.2       1 <0>        -0.4836
     11 C9          1.1291    6.2203    6.0676 C.2       1 <0>        -0.2919
     12 C10         1.0670    6.2153    7.4542 C.2       1 <0>         0.1635
     13 N2          0.8483    5.0563    8.0223 N.2       1 <0>        -0.5133
     14 C11         0.6959    3.9554    7.3079 C.2       1 <0>         0.2908
     15 S1          0.8482    4.4913    5.7199 S.3       1 <0>         0.1520
     16 N3          0.4615    2.6710    7.7573 N.pl3     1 <0>        -0.5898
     17 C12         0.2513    2.4361    9.1097 C.ar      1 <0>         0.4534
     18 C13        -0.0954    1.1662    9.5600 C.ar      1 <0>        -0.3376
     19 C14        -0.2952    0.9826   10.9250 C.ar      1 <0>         0.4607
     20 N4         -0.1485    2.0216   11.7451 N.ar      1 <0>        -0.5908
     21 C15         0.1808    3.2091   11.2794 C.ar      1 <0>         0.4046
     22 N5          0.3838    3.4218    9.9951 N.ar      1 <0>        -0.5314
     23 C16         0.3360    4.3561   12.2444 C.3       1 <0>        -0.0894
     24 N6         -0.6424   -0.2634   11.4237 N.pl3     1 <0>        -0.6179
     25 C17        -1.0594   -0.4281   12.8248 C.3       1 <0>         0.1046
     26 C18        -2.3757   -1.2120   12.8509 C.3       1 <0>        -0.0221
     27 N7         -2.2083   -2.4723   12.1163 N.4       1 <0>        -0.3823
     28 C19        -1.9425   -2.1937   10.6993 C.3       1 <0>        -0.0268
     29 C20        -0.6101   -1.4576   10.5651 C.3       1 <0>         0.1016
     30 C21        -3.4346   -3.2724   12.2345 C.3       1 <0>        -0.0056
     31 C22        -3.2188   -4.6367   11.5764 C.3       1 <0>         0.0448
     32 O2         -2.2227   -5.3623   12.2999 O.3       1 <0>        -0.5801
     33 Cl1        -0.1888    9.6145    4.2287 Cl        1 <0>        -0.0445
     34 H1          2.8800    5.9959    1.2003 H         1 <0>         0.0756
     35 H2          4.4261    6.8160    1.5246 H         1 <0>         0.0766
     36 H3          3.4521    6.1867    2.8750 H         1 <0>         0.0659
     37 H4          3.7793    8.8541    0.3718 H         1 <0>         0.1351
     38 H5          2.6049   11.0108    0.5257 H         1 <0>         0.1369
     39 H6          0.8557   11.3468    2.2245 H         1 <0>         0.1384
     40 H7          1.1536    6.2373    3.4667 H         1 <0>         0.4079
     41 H8          1.1926    7.1184    8.0330 H         1 <0>         0.1916
     42 H9          0.4436    1.9328    7.1283 H         1 <0>         0.4399
     43 H10        -0.2069    0.3443    8.8682 H         1 <0>         0.1428
     44 H11         1.3682    4.4018   12.5916 H         1 <0>         0.0928
     45 H12         0.0795    5.2896   11.7434 H         1 <0>         0.0949
     46 H13        -0.3276    4.2067   13.0961 H         1 <0>         0.0877
     47 H14        -0.2944   -0.9785   13.3724 H         1 <0>         0.0917
     48 H15        -1.2071    0.5511   13.2804 H         1 <0>         0.1402
     49 H16        -2.6503   -1.4269   13.8836 H         1 <0>         0.1447
     50 H17        -3.1610   -0.6193   12.3817 H         1 <0>         0.1326
     51 H18        -1.8978   -3.1321   10.1466 H         1 <0>         0.1433
     52 H19        -2.7409   -1.5714   10.2952 H         1 <0>         0.1343
     53 H20        -0.4609   -1.1588    9.5276 H         1 <0>         0.1286
     54 H21         0.2011   -2.1137   10.8807 H         1 <0>         0.0966
     55 H22        -3.6776   -3.4115   13.2880 H         1 <0>         0.1407
     56 H23        -4.2553   -2.7551   11.7376 H         1 <0>         0.1422
     57 H24        -4.1541   -5.1964   11.5852 H         1 <0>         0.0964
     58 H25        -2.8895   -4.4955   10.5470 H         1 <0>         0.0713
     59 H26        -2.0341   -6.2389   11.9379 H         1 <0>         0.4101
     60 H27        -1.4342   -2.9879   12.5075 H         1 <0>         0.4311
@<TRIPOS>BOND
     1    1    2 1
     2    1   34 1
     3    1   35 1
     4    1   36 1
     5    2    7 ar
     6    2    3 ar
     7    3    4 ar
     8    3   37 1
     9    4    5 ar
    10    4   38 1
    11    5    6 ar
    12    5   39 1
    13    6    7 ar
    14    6   33 1
    15    7    8 1
    16    8    9 am
    17    8   40 1
    18    9   10 2
    19    9   11 1
    20   11   15 1
    21   11   12 2
    22   12   13 1
    23   12   41 1
    24   13   14 2
    25   14   15 1
    26   14   16 1
    27   16   17 1
    28   16   42 1
    29   17   22 ar
    30   17   18 ar
    31   18   19 ar
    32   18   43 1
    33   19   20 ar
    34   19   24 1
    35   20   21 ar
    36   21   22 ar
    37   21   23 1
    38   23   44 1
    39   23   45 1
    40   23   46 1
    41   24   29 1
    42   24   25 1
    43   25   26 1
    44   25   47 1
    45   25   48 1
    46   26   27 1
    47   26   49 1
    48   26   50 1
    49   27   28 1
    50   27   30 1
    51   27   60 1
    52   28   29 1
    53   28   51 1
    54   28   52 1
    55   29   53 1
    56   29   54 1
    57   30   31 1
    58   30   55 1
    59   30   56 1
    60   31   32 1
    61   31   57 1
    62   31   58 1
    63   32   59 1
@<TRIPOS>MOLECULE
CHEMBL1421__2
   61    64     0     0     0
SMALL
USER_CHARGES

@<TRIPOS>ATOM
      1 C1          3.2770    6.6581    1.8427 C.3       1 <0>        -0.1166
      2 C2          2.5837    7.9904    1.9667 C.ar      1 <0>        -0.0814
      3 C3          2.9012    9.0183    1.0999 C.ar      1 <0>        -0.1028
      4 C4          2.2660   10.2411    1.2125 C.ar      1 <0>        -0.0975
      5 C5          1.3108   10.4402    2.1928 C.ar      1 <0>        -0.1039
      6 C6          0.9888    9.4167    3.0634 C.ar      1 <0>        -0.0218
      7 C7          1.6215    8.1842    2.9485 C.ar      1 <0>         0.1327
      8 N1          1.2933    7.1433    3.8237 N.am      1 <0>        -0.6648
      9 C8          1.3141    7.3507    5.1552 C.2       1 <0>         0.5983
     10 O1          1.5193    8.4677    5.5943 O.2       1 <0>        -0.4690
     11 C9          1.0903    6.2342    6.0727 C.2       1 <0>        -0.2500
     12 C10         1.0624    6.2188    7.4604 C.2       1 <0>         0.1439
     13 N2          0.8362    5.0594    8.0246 N.2       1 <0>        -0.4984
     14 C11         0.6458    3.9675    7.3056 C.2       1 <0>         0.2172
     15 S1          0.7692    4.5136    5.7185 S.3       1 <0>         0.2242
     16 N3          0.3986    2.6839    7.7506 N.pl3     1 <0>        -0.5513
     17 C12         0.2203    2.4413    9.1063 C.ar      1 <0>         0.5098
     18 C13        -0.1335    1.1734    9.5556 C.ar      1 <0>        -0.3097
     19 C14        -0.3003    0.9817   10.9244 C.ar      1 <0>         0.4927
     20 N4         -0.1163    2.0116   11.7481 N.ar      1 <0>        -0.5695
     21 C15         0.2187    3.1980   11.2828 C.ar      1 <0>         0.4589
     22 N5          0.3911    3.4178    9.9956 N.ar      1 <0>        -0.4762
     23 C16         0.4165    4.3348   12.2521 C.3       1 <0>        -0.1303
     24 N6         -0.6531   -0.2629   11.4224 N.pl3     1 <0>        -0.6123
     25 C17        -0.9643   -0.4465   12.8484 C.3       1 <0>         0.0782
     26 C18        -2.3027   -1.1838   12.9625 C.3       1 <0>        -0.0204
     27 N7         -2.2406   -2.4311   12.1903 N.4       1 <0>        -0.3852
     28 C19        -2.0770   -2.1279   10.7629 C.3       1 <0>        -0.0304
     29 C20        -0.7330   -1.4363   10.5388 C.3       1 <0>         0.0932
     30 C21        -3.4827   -3.1900   12.3886 C.3       1 <0>        -0.0061
     31 C22        -3.3702   -4.5448   11.6865 C.3       1 <0>         0.0434
     32 O2         -2.3479   -5.3224   12.3128 O.3       1 <0>        -0.5819
     33 Cl1        -0.2098    9.6671    4.2940 Cl        1 <0>        -0.0466
     34 H1          2.7157    6.0184    1.1617 H         1 <0>         0.0770
     35 H2          4.2843    6.8074    1.4538 H         1 <0>         0.0791
     36 H3          3.3325    6.1847    2.8230 H         1 <0>         0.0631
     37 H4          3.6468    8.8665    0.3335 H         1 <0>         0.1380
     38 H5          2.5166   11.0428    0.5336 H         1 <0>         0.1401
     39 H6          0.8165   11.3966    2.2780 H         1 <0>         0.1410
     40 H7          1.0508    6.2723    3.4722 H         1 <0>         0.4077
     41 H8          1.2191    7.1146    8.0429 H         1 <0>         0.2016
     42 H9          0.3494    1.9517    7.1163 H         1 <0>         0.4545
     43 H10        -0.2756    0.3590    8.8607 H         1 <0>         0.1860
     44 H11         1.4581    4.3621   12.5724 H         1 <0>         0.1309
     45 H12         0.1613    5.2760   11.7653 H         1 <0>         0.1358
     46 H13        -0.2267    4.1885   13.1199 H         1 <0>         0.1083
     47 H14        -0.1795   -1.0367   13.3215 H         1 <0>         0.1249
     48 H15        -1.0392    0.5259   13.3352 H         1 <0>         0.1232
     49 H16        -2.5028   -1.4138   14.0090 H         1 <0>         0.1602
     50 H17        -3.0999   -0.5526   12.5701 H         1 <0>         0.1410
     51 H18        -2.1110   -3.0537   10.1885 H         1 <0>         0.1585
     52 H19        -2.8811   -1.4682   10.4370 H         1 <0>         0.1418
     53 H20        -0.6550   -1.1179    9.4992 H         1 <0>         0.1416
     54 H21         0.0756   -2.1281   10.7747 H         1 <0>         0.1211
     55 H22        -3.6469   -3.3459   13.4548 H         1 <0>         0.1465
     56 H23        -4.3202   -2.6321   11.9697 H         1 <0>         0.1464
     57 H24        -4.3221   -5.0710   11.7578 H         1 <0>         0.1026
     58 H25        -3.1180   -4.3904   10.6374 H         1 <0>         0.0719
     59 H26        -2.2211   -6.1961   11.9183 H         1 <0>         0.4154
     60 H27        -0.2308    1.8869   12.7032 H         1 <0>         0.4393
     61 H28        -1.4578   -2.9831   12.5075 H         1 <0>         0.4359
@<TRIPOS>BOND
     1    1    2 1
     2    1   34 1
     3    1   35 1
     4    1   36 1
     5    2    7 ar
     6    2    3 ar
     7    3    4 ar
     8    3   37 1
     9    4    5 ar
    10    4   38 1
    11    5    6 ar
    12    5   39 1
    13    6    7 ar
    14    6   33 1
    15    7    8 1
    16    8    9 am
    17    8   40 1
    18    9   10 2
    19    9   11 1
    20   11   15 1
    21   11   12 2
    22   12   13 1
    23   12   41 1
    24   13   14 2
    25   14   15 1
    26   14   16 1
    27   16   17 1
    28   16   42 1
    29   17   18 ar
    30   17   22 ar
    31   18   43 1
    32   18   19 ar
    33   19   24 1
    34   19   20 ar
    35   20   60 1
    36   20   21 ar
    37   21   23 1
    38   21   22 ar
    39   23   44 1
    40   23   45 1
    41   23   46 1
    42   24   29 1
    43   24   25 1
    44   25   26 1
    45   25   47 1
    46   25   48 1
    47   26   27 1
    48   26   49 1
    49   26   50 1
    50   27   28 1
    51   27   30 1
    52   27   61 1
    53   28   29 1
    54   28   51 1
    55   28   52 1
    56   29   53 1
    57   29   54 1
    58   30   31 1
    59   30   55 1
    60   30   56 1
    61   31   32 1
    62   31   57 1
    63   31   58 1
    64   32   59 1
@<TRIPOS>MOLECULE
CHEMBL1421__3
   59    62     0     0     0
SMALL
USER_CHARGES

@<TRIPOS>ATOM
      1 C1          3.3957    6.6541    1.8846 C.3       1 <0>        -0.1166
      2 C2          2.6765    7.9747    1.9828 C.ar      1 <0>        -0.0851
      3 C3          2.9953    9.0018    1.1154 C.ar      1 <0>        -0.1055
      4 C4          2.3363   10.2139    1.2044 C.ar      1 <0>        -0.1070
      5 C5          1.3559   10.4031    2.1614 C.ar      1 <0>        -0.1064
      6 C6          1.0323    9.3804    3.0324 C.ar      1 <0>        -0.0243
      7 C7          1.6890    8.1585    2.9411 C.ar      1 <0>         0.1460
      8 N1          1.3596    7.1184    3.8167 N.am      1 <0>        -0.6734
      9 C8          1.3468    7.3357    5.1468 C.2       1 <0>         0.6131
     10 O1          1.5224    8.4593    5.5818 O.2       1 <0>        -0.4899
     11 C9          1.1219    6.2221    6.0675 C.2       1 <0>        -0.3092
     12 C10         1.0631    6.2164    7.4543 C.2       1 <0>         0.1722
     13 N2          0.8449    5.0572    8.0222 N.2       1 <0>        -0.5179
     14 C11         0.6902    3.9568    7.3075 C.2       1 <0>         0.3122
     15 S1          0.8391    4.4936    5.7194 S.3       1 <0>         0.1339
     16 N3          0.4559    2.6723    7.7567 N.pl3     1 <0>        -0.5904
     17 C12         0.2485    2.4367    9.1094 C.ar      1 <0>         0.4415
     18 C13        -0.0983    1.1669    9.5596 C.ar      1 <0>        -0.3413
     19 C14        -0.2952    0.9826   10.9250 C.ar      1 <0>         0.4685
     20 N4         -0.1457    2.0210   11.7454 N.ar      1 <0>        -0.5922
     21 C15         0.1836    3.2084   11.2797 C.ar      1 <0>         0.3947
     22 N5          0.3840    3.4217    9.9951 N.ar      1 <0>        -0.5460
     23 C16         0.3420    4.3547   12.2451 C.3       1 <0>        -0.0834
     24 N6         -0.6424   -0.2634   11.4237 N.pl3     1 <0>        -0.5966
     25 C17        -1.0590   -0.4265   12.8248 C.3       1 <0>         0.1301
     26 C18        -2.3852   -1.1937   12.8521 C.3       1 <0>         0.0401
     27 N7         -2.2386   -2.4458   12.0979 N.3       1 <0>        -0.5276
     28 C19        -1.9479   -2.1841   10.6820 C.3       1 <0>         0.0364
     29 C20        -0.6096   -1.4564   10.5641 C.3       1 <0>         0.1269
     30 C21        -3.4316   -3.2906   12.2431 C.3       1 <0>         0.0538
     31 C22        -3.1492   -4.6764   11.6595 C.3       1 <0>         0.0792
     32 O2         -2.1337   -5.3205   12.4316 O.3       1 <0>        -0.5589
     33 Cl1        -0.1979    9.6184    4.2338 Cl        1 <0>        -0.0432
     34 H1          2.8613    5.9996    1.1960 H         1 <0>         0.0754
     35 H2          4.4087    6.8185    1.5172 H         1 <0>         0.0754
     36 H3          3.4374    6.1889    2.8695 H         1 <0>         0.0676
     37 H4          3.7606    8.8577    0.3671 H         1 <0>         0.1337
     38 H5          2.5880   11.0150    0.5252 H         1 <0>         0.1350
     39 H6          0.8430   11.3512    2.2282 H         1 <0>         0.1371
     40 H7          1.1404    6.2407    3.4666 H         1 <0>         0.4085
     41 H8          1.1907    7.1190    8.0333 H         1 <0>         0.1884
     42 H9          0.4362    1.9344    7.1273 H         1 <0>         0.4386
     43 H10        -0.2121    0.3456    8.8676 H         1 <0>         0.1413
     44 H11         1.3750    4.3992   12.5900 H         1 <0>         0.0870
     45 H12         0.0853    5.2888   11.7453 H         1 <0>         0.0890
     46 H13        -0.3198    4.2054   13.0982 H         1 <0>         0.0846
     47 H14        -0.3000   -0.9879   13.3695 H         1 <0>         0.0744
     48 H15        -1.1933    0.5532   13.2832 H         1 <0>         0.1008
     49 H16        -2.6534   -1.4200   13.8841 H         1 <0>         0.0903
     50 H17        -3.1670   -0.5850   12.3979 H         1 <0>         0.0372
     51 H18        -1.8989   -3.1286   10.1401 H         1 <0>         0.0905
     52 H19        -2.7358   -1.5615   10.2580 H         1 <0>         0.0380
     53 H20        -0.4469   -1.1573    9.5286 H         1 <0>         0.0877
     54 H21         0.1935   -2.1187   10.8874 H         1 <0>         0.0802
     55 H22        -3.6832   -3.3855   13.2994 H         1 <0>         0.0861
     56 H23        -4.2663   -2.8352   11.7102 H         1 <0>         0.0487
     57 H24        -4.0601   -5.2745   11.6863 H         1 <0>         0.0498
     58 H25        -2.8116   -4.5745   10.6281 H         1 <0>         0.0451
     59 H26        -1.9032   -6.2057   12.1180 H         1 <0>         0.3762
@<TRIPOS>BOND
     1    1    2 1
     2    1   34 1
     3    1   35 1
     4    1   36 1
     5    2    7 ar
     6    2    3 ar
     7    3    4 ar
     8    3   37 1
     9    4    5 ar
    10    4   38 1
    11    5    6 ar
    12    5   39 1
    13    6    7 ar
    14    6   33 1
    15    7    8 1
    16    8    9 am
    17    8   40 1
    18    9   10 2
    19    9   11 1
    20   11   15 1
    21   11   12 2
    22   12   13 1
    23   12   41 1
    24   13   14 2
    25   14   15 1
    26   14   16 1
    27   16   17 1
    28   16   42 1
    29   17   22 ar
    30   17   18 ar
    31   18   19 ar
    32   18   43 1
    33   19   20 ar
    34   19   24 1
    35   20   21 ar
    36   21   22 ar
    37   21   23 1
    38   23   44 1
    39   23   45 1
    40   23   46 1
    41   24   29 1
    42   24   25 1
    43   25   26 1
    44   25   47 1
    45   25   48 1
    46   26   27 1
    47   26   49 1
    48   26   50 1
    49   27   28 1
    50   27   30 1
    51   28   29 1
    52   28   51 1
    53   28   52 1
    54   29   53 1
    55   29   54 1
    56   30   31 1
    57   30   55 1
    58   30   56 1
    59   31   32 1
    60   31   57 1
    61   31   58 1
    62   32   59 1
@<TRIPOS>MOLECULE
CHEMBL1421__4
   60    63     0     0     0
SMALL
USER_CHARGES

@<TRIPOS>ATOM
      1 C1          3.2739    6.6585    1.8418 C.3       1 <0>        -0.1168
      2 C2          2.5810    7.9910    1.9663 C.ar      1 <0>        -0.0823
      3 C3          2.8983    9.0189    1.0995 C.ar      1 <0>        -0.1038
      4 C4          2.2635   10.2419    1.2126 C.ar      1 <0>        -0.1008
      5 C5          1.3088   10.4411    2.1933 C.ar      1 <0>        -0.1049
      6 C6          0.9869    9.4175    3.0639 C.ar      1 <0>        -0.0226
      7 C7          1.6192    8.1849    2.9486 C.ar      1 <0>         0.1373
      8 N1          1.2913    7.1440    3.8238 N.am      1 <0>        -0.6678
      9 C8          1.3128    7.3511    5.1554 C.2       1 <0>         0.6036
     10 O1          1.5184    8.4680    5.5945 O.2       1 <0>        -0.4759
     11 C9          1.0891    6.2346    6.0728 C.2       1 <0>        -0.2694
     12 C10         1.0619    6.2190    7.4604 C.2       1 <0>         0.1522
     13 N2          0.8357    5.0596    8.0247 N.2       1 <0>        -0.5060
     14 C11         0.6446    3.9678    7.3056 C.2       1 <0>         0.2464
     15 S1          0.7674    4.5141    5.7185 S.3       1 <0>         0.2029
     16 N3          0.3973    2.6842    7.7505 N.pl3     1 <0>        -0.5650
     17 C12         0.2197    2.4414    9.1063 C.ar      1 <0>         0.4999
     18 C13        -0.1342    1.1736    9.5555 C.ar      1 <0>        -0.3181
     19 C14        -0.3003    0.9817   10.9244 C.ar      1 <0>         0.4940
     20 N4         -0.1157    2.0114   11.7481 N.ar      1 <0>        -0.5712
     21 C15         0.2193    3.1978   11.2829 C.ar      1 <0>         0.4509
     22 N5          0.3911    3.4178    9.9956 N.ar      1 <0>        -0.4879
     23 C16         0.4179    4.3344   12.2523 C.3       1 <0>        -0.1253
     24 N6         -0.6531   -0.2629   11.4224 N.pl3     1 <0>        -0.5744
     25 C17        -0.9639   -0.4449   12.8484 C.3       1 <0>         0.1013
     26 C18        -2.3114   -1.1652   12.9649 C.3       1 <0>         0.0387
     27 N7         -2.2712   -2.4031   12.1749 N.3       1 <0>        -0.5277
     28 C19        -2.0835   -2.1176   10.7462 C.3       1 <0>         0.0305
     29 C20        -0.7325   -1.4351   10.5377 C.3       1 <0>         0.1149
     30 C21        -3.4796   -3.2085   12.3965 C.3       1 <0>         0.0543
     31 C22        -3.2958   -4.5889   11.7629 C.3       1 <0>         0.0774
     32 O2         -2.2472   -5.2869   12.4378 O.3       1 <0>        -0.5615
     33 Cl1        -0.2110    9.6681    4.2952 Cl        1 <0>        -0.0453
     34 H1          2.7121    6.0191    1.1609 H         1 <0>         0.0767
     35 H2          4.2810    6.8077    1.4524 H         1 <0>         0.0779
     36 H3          3.3298    6.1850    2.8220 H         1 <0>         0.0648
     37 H4          3.6435    8.8670    0.3327 H         1 <0>         0.1365
     38 H5          2.5139   11.0437    0.5337 H         1 <0>         0.1383
     39 H6          0.8148   11.3976    2.2790 H         1 <0>         0.1396
     40 H7          1.0484    6.2731    3.4723 H         1 <0>         0.4083
     41 H8          1.2191    7.1147    8.0430 H         1 <0>         0.1979
     42 H9          0.3477    1.9521    7.1161 H         1 <0>         0.4525
     43 H10        -0.2767    0.3593    8.8606 H         1 <0>         0.1835
     44 H11         1.4596    4.3615   12.5720 H         1 <0>         0.1250
     45 H12         0.1626    5.2758   11.7656 H         1 <0>         0.1301
     46 H13        -0.2249    4.1881   13.1203 H         1 <0>         0.1049
     47 H14        -0.1857   -1.0458   13.3190 H         1 <0>         0.1119
     48 H15        -1.0251    0.5276   13.3369 H         1 <0>         0.0843
     49 H16        -2.5057   -1.4068   14.0099 H         1 <0>         0.1076
     50 H17        -3.1034   -0.5184   12.5874 H         1 <0>         0.0465
     51 H18        -2.1124   -3.0499   10.1822 H         1 <0>         0.1076
     52 H19        -2.8786   -1.4576   10.3996 H         1 <0>         0.0467
     53 H20        -0.6409   -1.1170    9.4992 H         1 <0>         0.1034
     54 H21         0.0684   -2.1330   10.7819 H         1 <0>         0.1075
     55 H22        -3.6507   -3.3200   13.4672 H         1 <0>         0.0925
     56 H23        -4.3362   -2.7111   11.9416 H         1 <0>         0.0553
     57 H24        -4.2233   -5.1548   11.8494 H         1 <0>         0.0565
     58 H25        -3.0370   -4.4741   10.7103 H         1 <0>         0.0456
     59 H26        -2.0752   -6.1719   12.0881 H         1 <0>         0.3821
     60 H27        -0.2297    1.8867   12.7033 H         1 <0>         0.4392
@<TRIPOS>BOND
     1    1    2 1
     2    1   34 1
     3    1   35 1
     4    1   36 1
     5    2    7 ar
     6    2    3 ar
     7    3    4 ar
     8    3   37 1
     9    4    5 ar
    10    4   38 1
    11    5    6 ar
    12    5   39 1
    13    6    7 ar
    14    6   33 1
    15    7    8 1
    16    8    9 am
    17    8   40 1
    18    9   10 2
    19    9   11 1
    20   11   15 1
    21   11   12 2
    22   12   13 1
    23   12   41 1
    24   13   14 2
    25   14   15 1
    26   14   16 1
    27   16   17 1
    28   16   42 1
    29   17   18 ar
    30   17   22 ar
    31   18   43 1
    32   18   19 ar
    33   19   24 1
    34   19   20 ar
    35   20   60 1
    36   20   21 ar
    37   21   23 1
    38   21   22 ar
    39   23   44 1
    40   23   45 1
    41   23   46 1
    42   24   29 1
    43   24   25 1
    44   25   26 1
    45   25   47 1
    46   25   48 1
    47   26   27 1
    48   26   49 1
    49   26   50 1
    50   27   28 1
    51   27   30 1
    52   28   29 1
    53   28   51 1
    54   28   52 1
    55   29   53 1
    56   29   54 1
    57   30   31 1
    58   30   55 1
    59   30   56 1
    60   31   32 1
    61   31   57 1
    62   31   58 1
    63   32   59 1
@<TRIPOS>MOLECULE
CHEMBL69638
   50    54     0     0     0
SMALL
USER_CHARGES

@<TRIPOS>ATOM
      1 C1          3.3338    1.3631    3.5652 C.ar      1 <0>        -0.1521
      2 C2          3.4155   -0.0170    3.5449 C.ar      1 <0>        -0.0820
      3 C3          3.4998   -0.6874    2.3400 C.ar      1 <0>        -0.1938
      4 C4          3.5021    0.0254    1.1495 C.ar      1 <0>         0.1213
      5 C5          3.4196    1.4103    1.1728 C.ar      1 <0>        -0.1460
      6 C6          3.3358    2.0758    2.3804 C.ar      1 <0>        -0.0822
      7 O1          3.5855   -0.6316   -0.0370 O.3       1 <0>        -0.2594
      8 C7          3.6573   -1.9884   -0.0113 C.ar      1 <0>         0.0931
      9 C8          2.4939   -2.7460   -0.0464 C.ar      1 <0>        -0.1279
     10 C9          2.5619   -4.1262   -0.0199 C.ar      1 <0>        -0.0961
     11 C10         3.7869   -4.7598    0.0415 C.ar      1 <0>        -0.1258
     12 C11         4.9599   -4.0069    0.0766 C.ar      1 <0>         0.0099
     13 C12         4.8909   -2.6156    0.0442 C.ar      1 <0>        -0.1164
     14 C13         6.2766   -4.6847    0.1431 C.2       1 <0>        -0.1104
     15 C14         7.3530   -4.4453   -0.6459 C.2       1 <0>         0.0698
     16 N1          8.3826   -5.2688   -0.2812 N.pl3     1 <0>        -0.4455
     17 C15         8.0027   -6.0711    0.7608 C.ar      1 <0>         0.3473
     18 C16         6.6737   -5.7429    1.0807 C.ar      1 <0>        -0.2519
     19 C17         6.0448   -6.4259    2.1300 C.ar      1 <0>         0.4928
     20 N2          6.7366   -7.3563    2.7823 N.ar      1 <0>        -0.6007
     21 C18         7.9850   -7.6320    2.4518 C.ar      1 <0>         0.3622
     22 N3          8.6112   -7.0215    1.4690 N.ar      1 <0>        -0.5692
     23 N4          4.7372   -6.1394    2.4794 N.pl3     1 <0>        -0.8322
     24 C19         9.7029   -5.2897   -0.9157 C.3       1 <0>         0.1308
     25 C20        10.3443   -3.8884   -0.8471 C.3       1 <0>        -0.1346
     26 C21        11.0908   -3.7459   -2.1968 C.3       1 <0>        -0.1233
     27 C22        10.1275   -4.4353   -3.1946 C.3       1 <0>        -0.1248
     28 C23         9.5650   -5.6374   -2.4083 C.3       1 <0>        -0.1366
     29 H1          3.2637    1.8851    4.5081 H         1 <0>         0.1257
     30 H2          3.4136   -0.5714    4.4717 H         1 <0>         0.1258
     31 H3          3.5643   -1.7654    2.3247 H         1 <0>         0.1267
     32 H4          3.4216    1.9675    0.2476 H         1 <0>         0.1326
     33 H5          3.2719    3.1538    2.3990 H         1 <0>         0.1318
     34 H6          1.5331   -2.2551   -0.0941 H         1 <0>         0.1337
     35 H7          1.6541   -4.7106   -0.0471 H         1 <0>         0.1362
     36 H8          3.8366   -5.8385    0.0627 H         1 <0>         0.1316
     37 H9          5.7967   -2.0278    0.0671 H         1 <0>         0.1333
     38 H10         7.3916   -3.7157   -1.4412 H         1 <0>         0.1774
     39 H11         8.5114   -8.3945    3.0068 H         1 <0>         0.1998
     40 H12         4.2440   -5.4584    1.9958 H         1 <0>         0.4105
     41 H13         4.3135   -6.6196    3.2079 H         1 <0>         0.4075
     42 H14        10.3435   -6.0190   -0.4200 H         1 <0>         0.1118
     43 H15         9.5758   -3.1212   -0.7534 H         1 <0>         0.0764
     44 H16        11.0461   -3.8304   -0.0151 H         1 <0>         0.0774
     45 H17        11.2266   -2.6954   -2.4540 H         1 <0>         0.0748
     46 H18        12.0493   -4.2638   -2.1646 H         1 <0>         0.0738
     47 H19         9.3239   -3.7564   -3.4800 H         1 <0>         0.0687
     48 H20        10.6709   -4.7764   -4.0757 H         1 <0>         0.0733
     49 H21        10.1394   -6.5351   -2.6371 H         1 <0>         0.0799
     50 H22         8.5157   -5.7906   -2.6606 H         1 <0>         0.0750
@<TRIPOS>BOND
     1    1    6 ar
     2    1    2 ar
     3    1   29 1
     4    2    3 ar
     5    2   30 1
     6    3    4 ar
     7    3   31 1
     8    4    5 ar
     9    4    7 1
    10    5    6 ar
    11    5   32 1
    12    6   33 1
    13    7    8 1
    14    8   13 ar
    15    8    9 ar
    16    9   10 ar
    17    9   34 1
    18   10   11 ar
    19   10   35 1
    20   11   12 ar
    21   11   36 1
    22   12   13 ar
    23   12   14 1
    24   13   37 1
    25   14   18 1
    26   14   15 2
    27   15   16 1
    28   15   38 1
    29   16   17 1
    30   16   24 1
    31   17   22 ar
    32   17   18 ar
    33   18   19 ar
    34   19   20 ar
    35   19   23 1
    36   20   21 ar
    37   21   22 ar
    38   21   39 1
    39   23   40 1
    40   23   41 1
    41   24   28 1
    42   24   25 1
    43   24   42 1
    44   25   26 1
    45   25   43 1
    46   25   44 1
    47   26   27 1
    48   26   45 1
    49   26   46 1
    50   27   28 1
    51   27   47 1
    52   27   48 1
    53   28   49 1
    54   28   50 1
@<TRIPOS>MOLECULE
CHEMBL499237
   50    51     0     0     0
SMALL
USER_CHARGES

@<TRIPOS>ATOM
      1 C1         -0.0187    1.5258    0.0104 C.3       1 <0>        -0.2007
      2 C2          0.0021   -0.0041    0.0020 C.3       1 <0>         0.1097
      3 H1         -1.0205   -0.3814    0.0098 H         1 <0>         0.1090
      4 C3          0.7184   -0.4976   -1.2566 C.3       1 <0>        -0.2162
      5 C4          0.6959    0.5849   -2.3049 C.2       1 <0>        -0.0297
      6 C5          1.8379    1.1456   -2.7085 C.2       1 <0>        -0.2557
      7 C6          3.1091    0.7098   -2.1312 C.2       1 <0>         0.3442
      8 O1          3.1248   -0.1613   -1.2868 O.2       1 <0>        -0.3603
      9 C7          4.3996    1.3422   -2.5852 C.3       1 <0>         0.0392
     10 H2          4.5012    1.2261   -3.6642 H         1 <0>         0.0775
     11 C8          5.5762    0.6586   -1.8857 C.3       1 <0>         0.1198
     12 H3          6.4968    0.8754   -2.4275 H         1 <0>         0.0624
     13 C9          5.6920    1.1829   -0.4529 C.3       1 <0>        -0.1050
     14 C10         4.8754    0.2904    0.4837 C.3       1 <0>        -0.1550
     15 C11         4.6033    1.0363    1.7918 C.3       1 <0>        -0.0800
     16 C12         3.9792    0.0908    2.7858 C.ar      1 <0>         0.0458
     17 C13         4.6753   -0.2820    3.9123 C.ar      1 <0>        -0.1782
     18 C14         4.1043   -1.1570    4.8317 C.ar      1 <0>         0.1845
     19 C15         2.8292   -1.6605    4.6193 C.ar      1 <0>        -0.2633
     20 C16         2.1178   -1.2926    3.4909 C.ar      1 <0>         0.2090
     21 C17         2.6912   -0.4075    2.5638 C.ar      1 <0>        -0.1956
     22 C18         1.9400   -0.0053    1.3643 C.2       1 <0>         0.5058
     23 O2          2.4428    0.7524    0.5579 O.2       1 <0>        -0.4686
     24 O3          0.6934   -0.4775    1.1595 O.3       1 <0>        -0.3323
     25 O4          0.8714   -1.7849    3.2811 O.3       1 <0>        -0.4782
     26 O5          4.7980   -1.5195    5.9403 O.3       1 <0>        -0.3085
     27 C19         4.1536   -2.4206    6.8430 C.3       1 <0>         0.0229
     28 O6          5.3599   -0.7537   -1.8602 O.3       1 <0>        -0.5347
     29 O7          4.3911    2.7323   -2.2543 O.3       1 <0>        -0.5349
     30 H4          1.0039    1.9031    0.0027 H         1 <0>         0.0946
     31 H5         -0.5459    1.8868   -0.8726 H         1 <0>         0.0679
     32 H6         -0.5289    1.8773    0.9072 H         1 <0>         0.0571
     33 H7          1.7513   -0.7459   -1.0129 H         1 <0>         0.1710
     34 H8          0.2121   -1.3840   -1.6387 H         1 <0>         0.0755
     35 H9         -0.2438    0.9071   -2.7287 H         1 <0>         0.1170
     36 H10         1.8233    1.9196   -3.4617 H         1 <0>         0.1256
     37 H11         6.7377    1.1718   -0.1454 H         1 <0>         0.0549
     38 H12         5.3105    2.2029   -0.4073 H         1 <0>         0.0882
     39 H13         3.9287    0.0345    0.0078 H         1 <0>         0.1651
     40 H14         5.4338   -0.6216    0.6949 H         1 <0>         0.0462
     41 H15         5.5413    1.4194    2.1938 H         1 <0>         0.0611
     42 H16         3.9226    1.8662    1.6024 H         1 <0>         0.0886
     43 H17         5.6687    0.1056    4.0837 H         1 <0>         0.1414
     44 H18         2.3915   -2.3405    5.3352 H         1 <0>         0.1416
     45 H19         0.1656   -1.2435    3.6604 H         1 <0>         0.3979
     46 H20         4.8154   -2.6276    7.6839 H         1 <0>         0.1051
     47 H21         3.2309   -1.9702    7.2090 H         1 <0>         0.0595
     48 H22         3.9229   -3.3512    6.3245 H         1 <0>         0.0604
     49 H23         5.2766   -1.1548   -2.7361 H         1 <0>         0.3677
     50 H24         3.6701    3.2297   -2.6639 H         1 <0>         0.3811
@<TRIPOS>BOND
     1    1    2 1
     2    1   30 1
     3    1   31 1
     4    1   32 1
     5    2    3 1
     6    2   24 1
     7    2    4 1
     8    4    5 1
     9    4   33 1
    10    4   34 1
    11    5    6 2
    12    5   35 1
    13    6    7 1
    14    6   36 1
    15    7    8 2
    16    7    9 1
    17    9   10 1
    18    9   11 1
    19    9   29 1
    20   11   12 1
    21   11   13 1
    22   11   28 1
    23   13   14 1
    24   13   37 1
    25   13   38 1
    26   14   15 1
    27   14   39 1
    28   14   40 1
    29   15   16 1
    30   15   41 1
    31   15   42 1
    32   16   21 ar
    33   16   17 ar
    34   17   18 ar
    35   17   43 1
    36   18   19 ar
    37   18   26 1
    38   19   20 ar
    39   19   44 1
    40   20   21 ar
    41   20   25 1
    42   21   22 1
    43   22   23 2
    44   22   24 1
    45   25   45 1
    46   26   27 1
    47   27   46 1
    48   27   47 1
    49   27   48 1
    50   28   49 1
    51   29   50 1
@<TRIPOS>MOLECULE
CHEMBL47940
   50    54     0     0     0
SMALL
USER_CHARGES

@<TRIPOS>ATOM
      1 C1          3.3370    1.3633    3.5653 C.ar      1 <0>        -0.1527
      2 C2          3.4192   -0.0168    3.5450 C.ar      1 <0>        -0.0823
      3 C3          3.5025   -0.6873    2.3401 C.ar      1 <0>        -0.1944
      4 C4          3.5032    0.0255    1.1495 C.ar      1 <0>         0.1211
      5 C5          3.4202    1.4104    1.1728 C.ar      1 <0>        -0.1464
      6 C6          3.3375    2.0760    2.3804 C.ar      1 <0>        -0.0823
      7 O1          3.5855   -0.6316   -0.0370 O.3       1 <0>        -0.2596
      8 C7          3.6573   -1.9885   -0.0113 C.ar      1 <0>         0.0806
      9 C8          2.4934   -2.7445   -0.0465 C.ar      1 <0>        -0.1152
     10 C9          2.5628   -4.1217   -0.0205 C.ar      1 <0>        -0.0956
     11 C10         3.8037   -4.7546    0.0407 C.ar      1 <0>        -0.0013
     12 C11         4.9707   -3.9925    0.0755 C.ar      1 <0>        -0.1142
     13 C12         4.8946   -2.6157    0.0443 C.ar      1 <0>        -0.1163
     14 C13         3.8820   -6.2349    0.0693 C.2       1 <0>        -0.1093
     15 C14         3.1900   -7.0680    0.8846 C.2       1 <0>         0.0680
     16 N1          3.5310   -8.3656    0.6127 N.pl3     1 <0>        -0.4461
     17 C15         4.4590   -8.4116   -0.3923 C.ar      1 <0>         0.3477
     18 C16         4.7196   -7.0869   -0.7844 C.ar      1 <0>        -0.2532
     19 C17         5.6424   -6.8580   -1.8136 C.ar      1 <0>         0.4929
     20 N2          6.2315   -7.9083   -2.3789 N.ar      1 <0>        -0.6011
     21 C18         5.9559   -9.1375   -1.9825 C.ar      1 <0>         0.3628
     22 N3          5.1023   -9.3977   -1.0159 N.ar      1 <0>        -0.5701
     23 N4          5.9333   -5.5718   -2.2318 N.pl3     1 <0>        -0.8318
     24 C19         2.9816   -9.5372    1.2994 C.3       1 <0>         0.1310
     25 C20         1.4444   -9.5530    1.1702 C.3       1 <0>        -0.1342
     26 C21         0.9538  -10.0912    2.5372 C.3       1 <0>        -0.1235
     27 C22         1.9381   -9.4341    3.5364 C.3       1 <0>        -0.1246
     28 C23         3.2955   -9.4617    2.8039 C.3       1 <0>        -0.1367
     29 H1          3.2678    1.8854    4.5083 H         1 <0>         0.1255
     30 H2          3.4186   -0.5710    4.4719 H         1 <0>         0.1257
     31 H3          3.5673   -1.7652    2.3248 H         1 <0>         0.1277
     32 H4          3.4209    1.9675    0.2475 H         1 <0>         0.1325
     33 H5          3.2732    3.1539    2.3991 H         1 <0>         0.1316
     34 H6          1.5325   -2.2536   -0.0939 H         1 <0>         0.1350
     35 H7          1.6570   -4.7092   -0.0472 H         1 <0>         0.1340
     36 H8          5.9333   -4.4797    0.1229 H         1 <0>         0.1335
     37 H9          5.7983   -2.0248    0.0675 H         1 <0>         0.1354
     38 H10         2.4781   -6.7556    1.6344 H         1 <0>         0.1773
     39 H11         6.4563   -9.9625   -2.4676 H         1 <0>         0.1997
     40 H12         5.4964   -4.8146   -1.8115 H         1 <0>         0.4109
     41 H13         6.5741   -5.4271   -2.9455 H         1 <0>         0.4078
     42 H14         3.4020  -10.4492    0.8756 H         1 <0>         0.1116
     43 H15         1.0657   -8.5454    0.9987 H         1 <0>         0.0765
     44 H16         1.1361  -10.2196    0.3648 H         1 <0>         0.0773
     45 H17        -0.0689   -9.7697    2.7344 H         1 <0>         0.0747
     46 H18         1.0325  -11.1777    2.5753 H         1 <0>         0.0737
     47 H19         1.6391   -8.4073    3.7471 H         1 <0>         0.0685
     48 H20         1.9900  -10.0140    4.4579 H         1 <0>         0.0731
     49 H21         3.8675  -10.3374    3.1104 H         1 <0>         0.0798
     50 H22         3.8565   -8.5532    3.0231 H         1 <0>         0.0749
@<TRIPOS>BOND
     1    1    6 ar
     2    1    2 ar
     3    1   29 1
     4    2    3 ar
     5    2   30 1
     6    3    4 ar
     7    3   31 1
     8    4    5 ar
     9    4    7 1
    10    5    6 ar
    11    5   32 1
    12    6   33 1
    13    7    8 1
    14    8   13 ar
    15    8    9 ar
    16    9   10 ar
    17    9   34 1
    18   10   11 ar
    19   10   35 1
    20   11   12 ar
    21   11   14 1
    22   12   13 ar
    23   12   36 1
    24   13   37 1
    25   14   18 1
    26   14   15 2
    27   15   16 1
    28   15   38 1
    29   16   17 1
    30   16   24 1
    31   17   22 ar
    32   17   18 ar
    33   18   19 ar
    34   19   20 ar
    35   19   23 1
    36   20   21 ar
    37   21   22 ar
    38   21   39 1
    39   23   40 1
    40   23   41 1
    41   24   28 1
    42   24   25 1
    43   24   42 1
    44   25   26 1
    45   25   43 1
    46   25   44 1
    47   26   27 1
    48   26   45 1
    49   26   46 1
    50   27   28 1
    51   27   47 1
    52   27   48 1
    53   28   49 1
    54   28   50 1
@<TRIPOS>MOLECULE
CHEMBL1087127
   63    67     0     0     0
SMALL
USER_CHARGES

@<TRIPOS>ATOM
      1 C1          2.2358    1.2896    0.6266 C.3       1 <0>        -0.1189
      2 C2          2.4078   -0.1980    0.7954 C.ar      1 <0>        -0.1011
      3 C3          3.1199   -0.9201   -0.1441 C.ar      1 <0>        -0.0970
      4 C4          3.2813   -2.2825    0.0032 C.ar      1 <0>        -0.1099
      5 C5          2.7248   -2.9365    1.1044 C.ar      1 <0>        -0.1129
      6 C6          2.0069   -2.2080    2.0525 C.ar      1 <0>        -0.0947
      7 C7          1.8548   -0.8384    1.8980 C.ar      1 <0>         0.1646
      8 N1          1.1407   -0.1025    2.8486 N.pl3     1 <0>        -0.6355
      9 C8          0.4445   -0.7548    3.8454 C.2       1 <0>         0.5393
     10 N2          0.2791   -2.0512    3.9233 N.2       1 <0>        -0.4988
     11 C9         -0.4543   -2.3542    5.0270 C.ar      1 <0>         0.0766
     12 C10        -0.9122   -3.5555    5.5738 C.ar      1 <0>        -0.0733
     13 C11        -1.6540   -3.5402    6.7338 C.ar      1 <0>        -0.1118
     14 C12        -1.9503   -2.3407    7.3639 C.ar      1 <0>        -0.1096
     15 C13        -1.5057   -1.1457    6.8361 C.ar      1 <0>        -0.0845
     16 C14        -0.7574   -1.1426    5.6694 C.ar      1 <0>         0.0553
     17 N3         -0.1719   -0.1436    4.9048 N.pl3     1 <0>        -0.4528
     18 C15        -0.2072    1.2252    5.1645 C.ar      1 <0>         0.4349
     19 C16        -0.2562    2.1399    4.1191 C.ar      1 <0>        -0.3263
     20 C17        -0.2900    3.4967    4.4308 C.ar      1 <0>         0.4708
     21 N4         -0.2742    3.8660    5.7099 N.ar      1 <0>        -0.5809
     22 C18        -0.2274    2.9672    6.6720 C.ar      1 <0>         0.3799
     23 N5         -0.1999    1.6750    6.4169 N.ar      1 <0>        -0.5670
     24 N6         -0.3388    4.4486    3.4245 N.pl3     1 <0>        -0.8267
     25 C19         2.8958   -4.3961    1.2644 C.2       1 <0>         0.5599
     26 O1          2.4106   -4.9633    2.2238 O.2       1 <0>        -0.5033
     27 N7          3.5897   -5.0979    0.3466 N.am      1 <0>        -0.6713
     28 C20         3.8333   -6.4605    0.5459 C.ar      1 <0>         0.1463
     29 C21         5.0340   -7.0212    0.1291 C.ar      1 <0>        -0.1500
     30 C22         5.2716   -8.3669    0.3279 C.ar      1 <0>        -0.0994
     31 C23         4.3155   -9.1564    0.9407 C.ar      1 <0>        -0.1292
     32 C24         3.1194   -8.6014    1.3566 C.ar      1 <0>        -0.0576
     33 C25         2.8778   -7.2548    1.1660 C.ar      1 <0>        -0.1167
     34 C26         2.0803   -9.4655    2.0235 C.3       1 <0>        -0.0580
     35 C27         1.6573  -10.5834    1.0683 C.3       1 <0>        -0.1437
     36 C28         2.6671  -10.0777    3.2970 C.3       1 <0>        -0.1439
     37 H1          3.0615    1.8084    1.1138 H         1 <0>         0.0766
     38 H2          2.2276    1.5363   -0.4351 H         1 <0>         0.0811
     39 H3          1.2941    1.6002    1.0791 H         1 <0>         0.0564
     40 H4          3.5510   -0.4162   -0.9965 H         1 <0>         0.1358
     41 H5          3.8376   -2.8432   -0.7333 H         1 <0>         0.1266
     42 H6          1.5739   -2.7084    2.9061 H         1 <0>         0.1966
     43 H7          1.1346    0.8666    2.8073 H         1 <0>         0.4196
     44 H8         -0.6854   -4.4931    5.0881 H         1 <0>         0.1354
     45 H9         -2.0081   -4.4691    7.1559 H         1 <0>         0.1335
     46 H10        -2.5330   -2.3419    8.2732 H         1 <0>         0.1333
     47 H11        -1.7403   -0.2149    7.3311 H         1 <0>         0.1297
     48 H12        -0.2674    1.8070    3.0917 H         1 <0>         0.1416
     49 H13        -0.2158    3.2993    7.6996 H         1 <0>         0.2107
     50 H14        -0.3497    4.1716    2.4949 H         1 <0>         0.4144
     51 H15        -0.3622    5.3918    3.6497 H         1 <0>         0.4150
     52 H16         3.9202   -4.6579   -0.4522 H         1 <0>         0.4093
     53 H17         5.7807   -6.4054   -0.3501 H         1 <0>         0.1236
     54 H18         6.2049   -8.8034    0.0041 H         1 <0>         0.1255
     55 H19         4.5035  -10.2087    1.0943 H         1 <0>         0.1219
     56 H20         1.9450   -6.8211    1.4948 H         1 <0>         0.1390
     57 H21         1.2121   -8.8580    2.2790 H         1 <0>         0.0788
     58 H22         2.5255  -11.1909    0.8128 H         1 <0>         0.0568
     59 H23         0.9058  -11.2084    1.5506 H         1 <0>         0.0586
     60 H24         1.2393  -10.1473    0.1610 H         1 <0>         0.0553
     61 H25         1.9155  -10.7027    3.7793 H         1 <0>         0.0586
     62 H26         3.5353  -10.6852    3.0415 H         1 <0>         0.0563
     63 H27         2.9684   -9.2813    3.9775 H         1 <0>         0.0570
@<TRIPOS>BOND
     1    1    2 1
     2    1   37 1
     3    1   38 1
     4    1   39 1
     5    2    7 ar
     6    2    3 ar
     7    3    4 ar
     8    3   40 1
     9    4    5 ar
    10    4   41 1
    11    5    6 ar
    12    5   25 1
    13    6    7 ar
    14    6   42 1
    15    7    8 1
    16    8    9 1
    17    8   43 1
    18    9   17 1
    19    9   10 2
    20   10   11 1
    21   11   16 ar
    22   11   12 ar
    23   12   13 ar
    24   12   44 1
    25   13   14 ar
    26   13   45 1
    27   14   15 ar
    28   14   46 1
    29   15   16 ar
    30   15   47 1
    31   16   17 1
    32   17   18 1
    33   18   23 ar
    34   18   19 ar
    35   19   20 ar
    36   19   48 1
    37   20   21 ar
    38   20   24 1
    39   21   22 ar
    40   22   23 ar
    41   22   49 1
    42   24   50 1
    43   24   51 1
    44   25   26 2
    45   25   27 am
    46   27   28 1
    47   27   52 1
    48   28   33 ar
    49   28   29 ar
    50   29   30 ar
    51   29   53 1
    52   30   31 ar
    53   30   54 1
    54   31   32 ar
    55   31   55 1
    56   32   33 ar
    57   32   34 1
    58   33   56 1
    59   34   35 1
    60   34   36 1
    61   34   57 1
    62   35   58 1
    63   35   59 1
    64   35   60 1
    65   36   61 1
    66   36   62 1
    67   36   63 1
@<TRIPOS>MOLECULE
CHEMBL1087127__1
   64    68     0     0     0
SMALL
USER_CHARGES

@<TRIPOS>ATOM
      1 C1         -0.5979    1.5151    0.1385 C.3       1 <0>        -0.1283
      2 C2         -1.6697    0.5347    0.5397 C.ar      1 <0>        -0.0779
      3 C3         -2.8096    0.4062   -0.2319 C.ar      1 <0>        -0.0765
      4 C4         -3.7956   -0.4889    0.1291 C.ar      1 <0>        -0.0904
      5 C5         -3.6439   -1.2693    1.2770 C.ar      1 <0>        -0.0906
      6 C6         -2.4938   -1.1402    2.0553 C.ar      1 <0>        -0.1135
      7 C7         -1.5064   -0.2414    1.6810 C.ar      1 <0>         0.1436
      8 N1         -0.3488   -0.1121    2.4547 N.pl3     1 <0>        -0.6601
      9 C8         -0.2337   -0.8013    3.6445 C.cat     1 <0>         0.6259
     10 N2         -0.1600   -2.1037    3.7558 N.pl3     1 <0>        -0.4800
     11 C9         -0.0543   -2.4465    5.0669 C.ar      1 <0>         0.0549
     12 C10         0.0520   -3.6702    5.7324 C.ar      1 <0>        -0.0745
     13 C11         0.1451   -3.6959    7.1060 C.ar      1 <0>        -0.0716
     14 C12         0.1342   -2.5157    7.8344 C.ar      1 <0>        -0.0664
     15 C13         0.0293   -1.2990    7.1918 C.ar      1 <0>        -0.0670
     16 C14        -0.0649   -1.2545    5.8097 C.ar      1 <0>         0.0935
     17 N3         -0.1734   -0.2251    4.8856 N.pl3     1 <0>        -0.3750
     18 C15        -0.2164    1.1390    5.1676 C.ar      1 <0>         0.4028
     19 C16        -0.2894    2.0697    4.1379 C.ar      1 <0>        -0.3051
     20 C17        -0.3299    3.4211    4.4718 C.ar      1 <0>         0.4771
     21 N4         -0.2974    3.7701    5.7562 N.ar      1 <0>        -0.5621
     22 C18        -0.2280    2.8566    6.7030 C.ar      1 <0>         0.3946
     23 N5         -0.1935    1.5689    6.4269 N.ar      1 <0>        -0.5644
     24 N6         -0.4025    4.3884    3.4817 N.pl3     1 <0>        -0.8152
     25 C19        -4.6989   -2.2288    1.6664 C.2       1 <0>         0.5567
     26 O1         -4.5647   -2.9071    2.6661 O.2       1 <0>        -0.5137
     27 N7         -5.8096   -2.3514    0.9128 N.am      1 <0>        -0.6604
     28 C20        -6.7621   -3.3267    1.2249 C.ar      1 <0>         0.1330
     29 C21        -7.4493   -3.9787    0.2089 C.ar      1 <0>        -0.1436
     30 C22        -8.3889   -4.9416    0.5204 C.ar      1 <0>        -0.0964
     31 C23        -8.6463   -5.2566    1.8423 C.ar      1 <0>        -0.1208
     32 C24        -7.9641   -4.6094    2.8559 C.ar      1 <0>        -0.0572
     33 C25        -7.0189   -3.6494    2.5509 C.ar      1 <0>        -0.1156
     34 C26        -8.2482   -4.9555    4.2948 C.3       1 <0>        -0.0572
     35 C27        -9.7208   -4.6792    4.6047 C.3       1 <0>        -0.1460
     36 C28        -7.9463   -6.4365    4.5323 C.3       1 <0>        -0.1448
     37 H1          0.1176    1.0221   -0.5196 H         1 <0>         0.0905
     38 H2         -1.0524    2.3566   -0.3843 H         1 <0>         0.0922
     39 H3         -0.0835    1.8758    1.0293 H         1 <0>         0.0583
     40 H4         -2.9289    1.0089   -1.1202 H         1 <0>         0.1512
     41 H5         -4.6849   -0.5858   -0.4760 H         1 <0>         0.1407
     42 H6         -2.3710   -1.7408    2.9445 H         1 <0>         0.1307
     43 H7          0.3732    0.4621    2.1550 H         1 <0>         0.4449
     44 H8          0.0608   -4.5930    5.1714 H         1 <0>         0.1570
     45 H9          0.2269   -4.6422    7.6201 H         1 <0>         0.1604
     46 H10         0.2078   -2.5492    8.9114 H         1 <0>         0.1605
     47 H11         0.0206   -0.3835    7.7646 H         1 <0>         0.1681
     48 H12        -0.3137    1.7531    3.1056 H         1 <0>         0.1546
     49 H13        -0.2033    3.1724    7.7355 H         1 <0>         0.2226
     50 H14        -0.4254    4.1260    2.5481 H         1 <0>         0.4169
     51 H15        -0.4303    5.3276    3.7224 H         1 <0>         0.4222
     52 H16        -5.9483   -1.7633    0.1541 H         1 <0>         0.4119
     53 H17        -7.2492   -3.7327   -0.8235 H         1 <0>         0.1263
     54 H18        -8.9235   -5.4489   -0.2690 H         1 <0>         0.1305
     55 H19        -9.3822   -6.0095    2.0833 H         1 <0>         0.1264
     56 H20        -6.4834   -3.1472    3.3430 H         1 <0>         0.1352
     57 H21        -7.6197   -4.3477    4.9457 H         1 <0>         0.0762
     58 H22       -10.3493   -5.2870    3.9538 H         1 <0>         0.0593
     59 H23        -9.9263   -4.9295    5.6454 H         1 <0>         0.0612
     60 H24        -9.9359   -3.6241    4.4355 H         1 <0>         0.0557
     61 H25        -6.8972   -6.6334    4.3116 H         1 <0>         0.0549
     62 H26        -8.1519   -6.6869    5.5731 H         1 <0>         0.0608
     63 H27        -8.5749   -7.0444    3.8815 H         1 <0>         0.0589
     64 H28        -0.1781   -2.7293    3.0147 H         1 <0>         0.4643
@<TRIPOS>BOND
     1    1    2 1
     2    1   37 1
     3    1   38 1
     4    1   39 1
     5    2    7 ar
     6    2    3 ar
     7    3    4 ar
     8    3   40 1
     9    4    5 ar
    10    4   41 1
    11    5    6 ar
    12    5   25 1
    13    6    7 ar
    14    6   42 1
    15    7    8 1
    16    8    9 1
    17    8   43 1
    18    9   17 1
    19    9   10 2
    20   10   11 1
    21   10   64 1
    22   11   16 ar
    23   11   12 ar
    24   12   13 ar
    25   12   44 1
    26   13   14 ar
    27   13   45 1
    28   14   15 ar
    29   14   46 1
    30   15   16 ar
    31   15   47 1
    32   16   17 1
    33   17   18 1
    34   18   23 ar
    35   18   19 ar
    36   19   20 ar
    37   19   48 1
    38   20   21 ar
    39   20   24 1
    40   21   22 ar
    41   22   23 ar
    42   22   49 1
    43   24   50 1
    44   24   51 1
    45   25   26 2
    46   25   27 am
    47   27   28 1
    48   27   52 1
    49   28   33 ar
    50   28   29 ar
    51   29   30 ar
    52   29   53 1
    53   30   31 ar
    54   30   54 1
    55   31   32 ar
    56   31   55 1
    57   32   33 ar
    58   32   34 1
    59   33   56 1
    60   34   35 1
    61   34   36 1
    62   34   57 1
    63   35   58 1
    64   35   59 1
    65   35   60 1
    66   36   61 1
    67   36   62 1
    68   36   63 1
@<TRIPOS>MOLECULE
CHEMBL535
   57    59     0     0     0
SMALL
USER_CHARGES

@<TRIPOS>ATOM
      1 C1          0.1489    2.0884    0.1150 C.3       1 <0>        -0.1876
      2 C2          0.1348    0.5603    0.1888 C.3       1 <0>        -0.0191
      3 N1         -1.2520    0.0881    0.2979 N.4       1 <0>        -0.3822
      4 C3         -1.9779    0.4111   -0.9377 C.3       1 <0>        -0.0142
      5 C4         -3.4549    0.0484   -0.7712 C.3       1 <0>        -0.1895
      6 C5         -1.2593   -1.3663    0.5041 C.3       1 <0>        -0.0265
      7 C6         -0.6131   -1.6936    1.8518 C.3       1 <0>         0.0952
      8 N2         -0.6203   -3.1440    2.0575 N.am      1 <0>        -0.7289
      9 C7         -0.0988   -3.6675    3.1846 C.2       1 <0>         0.6111
     10 O1          0.3779   -2.9358    4.0309 O.2       1 <0>        -0.5184
     11 C8         -0.1061   -5.1270    3.3915 C.2       1 <0>        -0.2420
     12 C9          0.9071   -6.0320    3.0089 C.2       1 <0>        -0.0577
     13 C10         0.4868   -7.2892    3.3960 C.2       1 <0>        -0.0075
     14 N3         -0.7476   -7.1595    3.9982 N.pl3     1 <0>        -0.4910
     15 H1         -1.2731   -7.8879    4.3645 H         1 <0>         0.4270
     16 C11        -1.1044   -5.8642    4.0022 C.2       1 <0>         0.1158
     17 C12        -2.3825   -5.3072    4.5743 C.3       1 <0>        -0.0999
     18 C13         1.1957   -8.4957    3.2079 C.2       1 <0>         0.0729
     19 C14         0.5100   -9.6674    2.9570 C.2       1 <0>        -0.1889
     20 C15         1.0648  -11.0377    2.8871 C.ar      1 <0>        -0.0736
     21 C16         2.3472  -11.5557    3.0375 C.ar      1 <0>        -0.1000
     22 C17         2.5553  -12.9162    2.9116 C.ar      1 <0>         0.0861
     23 C18         1.4888  -13.7593    2.6366 C.ar      1 <0>        -0.1139
     24 C19         0.2139  -13.2531    2.4856 C.ar      1 <0>        -0.1021
     25 C20        -0.0144  -11.8871    2.6092 C.ar      1 <0>         0.1282
     26 N4         -1.1765  -11.1301    2.5069 N.am      1 <0>        -0.6466
     27 C21        -0.9294   -9.8245    2.7079 C.2       1 <0>         0.5595
     28 O2         -1.7538   -8.9280    2.6842 O.2       1 <0>        -0.5156
     29 F1          3.7984  -13.4252    3.0561 F         1 <0>        -0.1318
     30 C22         2.1990   -5.6919    2.3116 C.3       1 <0>        -0.0931
     31 H2          1.1793    2.4435    0.1331 H         1 <0>         0.1076
     32 H3         -0.3308    2.4121   -0.8087 H         1 <0>         0.0811
     33 H4         -0.3916    2.4984    0.9682 H         1 <0>         0.0809
     34 H5          0.5888    0.1488   -0.7126 H         1 <0>         0.1317
     35 H6          0.6996    0.2334    1.0619 H         1 <0>         0.1337
     36 H7         -1.8867    1.4775   -1.1444 H         1 <0>         0.1351
     37 H8         -1.5554   -0.1571   -1.7664 H         1 <0>         0.1307
     38 H9         -3.5537   -1.0316   -0.6617 H         1 <0>         0.0802
     39 H10        -3.8523    0.5414    0.1160 H         1 <0>         0.0808
     40 H11        -4.0109    0.3769   -1.6492 H         1 <0>         0.1074
     41 H12        -2.2871   -1.7292    0.4963 H         1 <0>         0.1397
     42 H13        -0.6973   -1.8494   -0.2952 H         1 <0>         0.1376
     43 H14         0.4147   -1.3306    1.8596 H         1 <0>         0.0893
     44 H15        -1.1751   -1.2105    2.6511 H         1 <0>         0.0890
     45 H16        -1.0005   -3.7277    1.3824 H         1 <0>         0.4099
     46 H17        -3.1529   -5.3000    3.8032 H         1 <0>         0.0840
     47 H18        -2.7087   -5.9289    5.4080 H         1 <0>         0.0782
     48 H19        -2.2103   -4.2898    4.9254 H         1 <0>         0.0840
     49 H20         2.2744   -8.5020    3.2604 H         1 <0>         0.1589
     50 H21         3.1765  -10.8977    3.2512 H         1 <0>         0.1436
     51 H22         1.6578  -14.8215    2.5394 H         1 <0>         0.1485
     52 H23        -0.6084  -13.9196    2.2712 H         1 <0>         0.1415
     53 H24        -2.0541  -11.4980    2.3189 H         1 <0>         0.4217
     54 H25         2.9686   -5.4822    3.0545 H         1 <0>         0.0785
     55 H26         2.5107   -6.5337    1.6932 H         1 <0>         0.0726
     56 H27         2.0522   -4.8138    1.6827 H         1 <0>         0.0634
     57 H28        -1.7009    0.5410    1.0799 H         1 <0>         0.4247
@<TRIPOS>BOND
     1    1    2 1
     2    1   31 1
     3    1   32 1
     4    1   33 1
     5    2    3 1
     6    2   34 1
     7    2   35 1
     8    3    4 1
     9    3    6 1
    10    3   57 1
    11    4    5 1
    12    4   36 1
    13    4   37 1
    14    5   38 1
    15    5   39 1
    16    5   40 1
    17    6    7 1
    18    6   41 1
    19    6   42 1
    20    7    8 1
    21    7   43 1
    22    7   44 1
    23    8    9 am
    24    8   45 1
    25    9   10 2
    26    9   11 1
    27   11   16 2
    28   11   12 1
    29   12   13 2
    30   12   30 1
    31   13   14 1
    32   13   18 1
    33   14   15 1
    34   14   16 1
    35   16   17 1
    36   17   46 1
    37   17   47 1
    38   17   48 1
    39   18   19 2
    40   18   49 1
    41   19   27 1
    42   19   20 1
    43   20   25 ar
    44   20   21 ar
    45   21   22 ar
    46   21   50 1
    47   22   23 ar
    48   22   29 1
    49   23   24 ar
    50   23   51 1
    51   24   25 ar
    52   24   52 1
    53   25   26 1
    54   26   27 am
    55   26   53 1
    56   27   28 2
    57   30   54 1
    58   30   55 1
    59   30   56 1
@<TRIPOS>MOLECULE
CHEMBL325986
   59    63     0     0     0
SMALL
USER_CHARGES

@<TRIPOS>ATOM
      1 C1          2.5227   -1.2129    1.7687 C.3       1 <0>        -0.1115
      2 C2          1.3232   -1.3318    0.8641 C.ar      1 <0>        -0.0581
      3 C3          1.4155   -2.0431   -0.3166 C.ar      1 <0>        -0.1126
      4 C4          0.3158   -2.1534   -1.1472 C.ar      1 <0>        -0.0960
      5 C5         -0.8806   -1.5525   -0.7998 C.ar      1 <0>        -0.1143
      6 C6         -0.9801   -0.8395    0.3796 C.ar      1 <0>        -0.0199
      7 C7          0.1227   -0.7313    1.2193 C.ar      1 <0>         0.1572
      8 N1          0.0246   -0.0151    2.4162 N.pl3     1 <0>        -0.6535
      9 C8         -0.3655   -0.6584    3.5772 C.2       1 <0>         0.4811
     10 C9         -0.4752    0.0900    4.8274 C.2       1 <0>        -0.0687
     11 C10        -0.2702    1.4001    5.1834 C.2       1 <0>         0.0354
     12 N2         -0.5305    1.5067    6.4888 N.2       1 <0>        -0.4682
     13 C11        -0.8857    0.3402    6.9672 C.2       1 <0>         0.1967
     14 N3         -0.8670   -0.5697    5.9778 N.pl3     1 <0>        -0.3653
     15 C12        -1.1450   -1.9298    5.9085 C.ar      1 <0>         0.1058
     16 C13        -1.5410   -2.6214    7.0437 C.ar      1 <0>        -0.1957
     17 C14        -1.8172   -3.9777    6.9680 C.ar      1 <0>         0.2289
     18 C15        -1.6985   -4.6499    5.7541 C.ar      1 <0>        -0.1701
     19 C16        -1.3067   -3.9751    4.6212 C.ar      1 <0>        -0.0368
     20 C17        -1.0244   -2.6047    4.6830 C.ar      1 <0>         0.0912
     21 N4         -0.6436   -1.9434    3.5569 N.2       1 <0>        -0.5319
     22 N5         -2.2157   -4.6728    8.1134 N.pl3     1 <0>        -0.7424
     23 C18        -2.5081   -6.1062    8.0357 C.3       1 <0>         0.1249
     24 C19        -2.9185   -6.6186    9.4178 C.3       1 <0>        -0.1281
     25 C20        -3.2239   -8.1156    9.3367 C.3       1 <0>         0.0584
     26 N6         -3.6179   -8.6075   10.6636 N.3       1 <0>        -0.5375
     27 C21        -2.4925   -8.5375   11.6069 C.3       1 <0>         0.0137
     28 C22        -2.9618   -9.0021   12.9882 C.3       1 <0>         0.0624
     29 O1         -3.4996  -10.3232   12.8840 O.3       1 <0>        -0.3850
     30 C23        -4.5979  -10.4276   11.9739 C.3       1 <0>         0.0625
     31 C24        -4.1452   -9.9775   10.5824 C.3       1 <0>         0.0171
     32 Cl1        -2.4818   -0.0853    0.8153 Cl        1 <0>        -0.0596
     33 H1          2.5277   -2.0420    2.4763 H         1 <0>         0.0737
     34 H2          3.4333   -1.2405    1.1702 H         1 <0>         0.0709
     35 H3          2.4746   -0.2702    2.3138 H         1 <0>         0.0674
     36 H4          2.3481   -2.5134   -0.5914 H         1 <0>         0.1322
     37 H5          0.3911   -2.7099   -2.0698 H         1 <0>         0.1346
     38 H6         -1.7376   -1.6403   -1.4511 H         1 <0>         0.1357
     39 H7          0.2300    0.9327    2.4325 H         1 <0>         0.4210
     40 H8          0.0441    2.1985    4.5276 H         1 <0>         0.1839
     41 H9         -1.1520    0.1408    7.9947 H         1 <0>         0.2136
     42 H10        -1.6337   -2.1033    7.9868 H         1 <0>         0.1288
     43 H11        -1.9149   -5.7067    5.7020 H         1 <0>         0.1331
     44 H12        -1.2163   -4.5027    3.6832 H         1 <0>         0.1410
     45 H13        -2.2985   -4.2060    8.9597 H         1 <0>         0.4018
     46 H14        -3.3218   -6.2733    7.3300 H         1 <0>         0.0642
     47 H15        -1.6197   -6.6406    7.6992 H         1 <0>         0.0618
     48 H16        -2.1048   -6.4515   10.1235 H         1 <0>         0.0703
     49 H17        -3.8069   -6.0842    9.7544 H         1 <0>         0.0800
     50 H18        -4.0376   -8.2827    8.6309 H         1 <0>         0.0808
     51 H19        -2.3355   -8.6499    9.0001 H         1 <0>         0.0397
     52 H20        -1.6862   -9.1838   11.2601 H         1 <0>         0.0442
     53 H21        -2.1344   -7.5100   11.6708 H         1 <0>         0.0882
     54 H22        -2.1172   -9.0062   13.6772 H         1 <0>         0.0990
     55 H23        -3.7309   -8.3242   13.3583 H         1 <0>         0.0605
     56 H24        -4.9365  -11.4627   11.9294 H         1 <0>         0.0999
     57 H25        -5.4146   -9.7911   12.3145 H         1 <0>         0.0609
     58 H26        -4.9935  -10.0010    9.8983 H         1 <0>         0.0881
     59 H27        -3.3652  -10.6467   10.2192 H         1 <0>         0.0446
@<TRIPOS>BOND
     1    1    2 1
     2    1   33 1
     3    1   34 1
     4    1   35 1
     5    2    7 ar
     6    2    3 ar
     7    3    4 ar
     8    3   36 1
     9    4    5 ar
    10    4   37 1
    11    5    6 ar
    12    5   38 1
    13    6    7 ar
    14    6   32 1
    15    7    8 1
    16    8    9 1
    17    8   39 1
    18    9   21 2
    19    9   10 1
    20   10   14 1
    21   10   11 2
    22   11   12 1
    23   11   40 1
    24   12   13 2
    25   13   14 1
    26   13   41 1
    27   14   15 1
    28   15   20 ar
    29   15   16 ar
    30   16   17 ar
    31   16   42 1
    32   17   18 ar
    33   17   22 1
    34   18   19 ar
    35   18   43 1
    36   19   20 ar
    37   19   44 1
    38   20   21 1
    39   22   23 1
    40   22   45 1
    41   23   24 1
    42   23   46 1
    43   23   47 1
    44   24   25 1
    45   24   48 1
    46   24   49 1
    47   25   26 1
    48   25   50 1
    49   25   51 1
    50   26   31 1
    51   26   27 1
    52   27   28 1
    53   27   52 1
    54   27   53 1
    55   28   29 1
    56   28   54 1
    57   28   55 1
    58   29   30 1
    59   30   31 1
    60   30   56 1
    61   30   57 1
    62   31   58 1
    63   31   59 1
@<TRIPOS>MOLECULE
CHEMBL325986__1
   60    64     0     0     0
SMALL
USER_CHARGES

@<TRIPOS>ATOM
      1 C1          2.5227   -1.2129    1.7687 C.3       1 <0>        -0.1119
      2 C2          1.3232   -1.3318    0.8641 C.ar      1 <0>        -0.0572
      3 C3          1.4155   -2.0431   -0.3166 C.ar      1 <0>        -0.1117
      4 C4          0.3158   -2.1534   -1.1472 C.ar      1 <0>        -0.0935
      5 C5         -0.8806   -1.5525   -0.7998 C.ar      1 <0>        -0.1134
      6 C6         -0.9801   -0.8395    0.3796 C.ar      1 <0>        -0.0193
      7 C7          0.1227   -0.7313    1.2193 C.ar      1 <0>         0.1515
      8 N1          0.0246   -0.0151    2.4162 N.pl3     1 <0>        -0.6481
      9 C8         -0.3655   -0.6584    3.5772 C.2       1 <0>         0.4942
     10 C9         -0.4752    0.0900    4.8274 C.2       1 <0>        -0.0731
     11 C10        -0.2702    1.4001    5.1834 C.2       1 <0>         0.0445
     12 N2         -0.5305    1.5067    6.4888 N.2       1 <0>        -0.4650
     13 C11        -0.8857    0.3402    6.9672 C.2       1 <0>         0.1993
     14 N3         -0.8670   -0.5697    5.9778 N.pl3     1 <0>        -0.3689
     15 C12        -1.1450   -1.9298    5.9085 C.ar      1 <0>         0.1015
     16 C13        -1.5410   -2.6214    7.0437 C.ar      1 <0>        -0.1833
     17 C14        -1.8172   -3.9777    6.9680 C.ar      1 <0>         0.2115
     18 C15        -1.6985   -4.6499    5.7541 C.ar      1 <0>        -0.1678
     19 C16        -1.3067   -3.9751    4.6212 C.ar      1 <0>        -0.0406
     20 C17        -1.0244   -2.6047    4.6830 C.ar      1 <0>         0.1081
     21 N4         -0.6436   -1.9434    3.5569 N.2       1 <0>        -0.5407
     22 N5         -2.2157   -4.6728    8.1134 N.pl3     1 <0>        -0.7505
     23 C18        -2.5081   -6.1062    8.0357 C.3       1 <0>         0.1318
     24 C19        -2.9185   -6.6186    9.4178 C.3       1 <0>        -0.1628
     25 C20        -3.2239   -8.1156    9.3367 C.3       1 <0>        -0.0053
     26 N6         -3.6179   -8.6075   10.6636 N.4       1 <0>        -0.3852
     27 C21        -2.4800   -8.4934   11.5862 C.3       1 <0>        -0.0488
     28 C22        -2.8930   -9.0064   12.9680 C.3       1 <0>         0.0360
     29 O1         -3.3430  -10.3593   12.8536 O.3       1 <0>        -0.3559
     30 C23        -4.4363  -10.5256   11.9465 C.3       1 <0>         0.0353
     31 C24        -4.0261  -10.0155   10.5628 C.3       1 <0>        -0.0434
     32 Cl1        -2.4818   -0.0853    0.8153 Cl        1 <0>        -0.0593
     33 H1          2.5277   -2.0420    2.4763 H         1 <0>         0.0727
     34 H2          3.4333   -1.2405    1.1702 H         1 <0>         0.0729
     35 H3          2.4746   -0.2702    2.3138 H         1 <0>         0.0672
     36 H4          2.3481   -2.5134   -0.5914 H         1 <0>         0.1336
     37 H5          0.3911   -2.7099   -2.0698 H         1 <0>         0.1362
     38 H6         -1.7376   -1.6403   -1.4511 H         1 <0>         0.1371
     39 H7          0.2300    0.9327    2.4325 H         1 <0>         0.4230
     40 H8          0.0441    2.1985    4.5276 H         1 <0>         0.1868
     41 H9         -1.1520    0.1408    7.9947 H         1 <0>         0.2140
     42 H10        -1.6337   -2.1033    7.9868 H         1 <0>         0.1291
     43 H11        -1.9149   -5.7067    5.7020 H         1 <0>         0.1300
     44 H12        -1.2163   -4.5027    3.6832 H         1 <0>         0.1432
     45 H13        -2.2985   -4.2060    8.9597 H         1 <0>         0.4019
     46 H14        -3.3218   -6.2733    7.3300 H         1 <0>         0.0714
     47 H15        -1.6197   -6.6406    7.6992 H         1 <0>         0.0712
     48 H16        -2.1048   -6.4515   10.1235 H         1 <0>         0.0943
     49 H17        -3.8069   -6.0842    9.7544 H         1 <0>         0.0950
     50 H18        -4.0376   -8.2827    8.6309 H         1 <0>         0.1376
     51 H19        -2.3355   -8.6499    9.0001 H         1 <0>         0.1355
     52 H20        -1.6470   -9.0884   11.2115 H         1 <0>         0.1405
     53 H21        -2.1764   -7.4493   11.6618 H         1 <0>         0.1425
     54 H22        -2.0382   -8.9629   13.6429 H         1 <0>         0.1424
     55 H23        -3.6993   -8.3866   13.3603 H         1 <0>         0.0814
     56 H24        -4.6985  -11.5817   11.8821 H         1 <0>         0.1432
     57 H25        -5.2954   -9.9578   12.3039 H         1 <0>         0.0817
     58 H26        -4.8703  -10.1012    9.8787 H         1 <0>         0.1440
     59 H27        -3.1926  -10.6098   10.1885 H         1 <0>         0.1402
     60 H28        -4.3893   -8.0576   11.0109 H         1 <0>         0.4235
@<TRIPOS>BOND
     1    1    2 1
     2    1   33 1
     3    1   34 1
     4    1   35 1
     5    2    7 ar
     6    2    3 ar
     7    3    4 ar
     8    3   36 1
     9    4    5 ar
    10    4   37 1
    11    5    6 ar
    12    5   38 1
    13    6    7 ar
    14    6   32 1
    15    7    8 1
    16    8    9 1
    17    8   39 1
    18    9   21 2
    19    9   10 1
    20   10   14 1
    21   10   11 2
    22   11   12 1
    23   11   40 1
    24   12   13 2
    25   13   14 1
    26   13   41 1
    27   14   15 1
    28   15   20 ar
    29   15   16 ar
    30   16   17 ar
    31   16   42 1
    32   17   18 ar
    33   17   22 1
    34   18   19 ar
    35   18   43 1
    36   19   20 ar
    37   19   44 1
    38   20   21 1
    39   22   23 1
    40   22   45 1
    41   23   24 1
    42   23   46 1
    43   23   47 1
    44   24   25 1
    45   24   48 1
    46   24   49 1
    47   25   26 1
    48   25   50 1
    49   25   51 1
    50   26   31 1
    51   26   27 1
    52   26   60 1
    53   27   28 1
    54   27   52 1
    55   27   53 1
    56   28   29 1
    57   28   54 1
    58   28   55 1
    59   29   30 1
    60   30   31 1
    61   30   56 1
    62   30   57 1
    63   31   58 1
    64   31   59 1
@<TRIPOS>MOLECULE
CHEMBL460472
   70    74     0     0     0
SMALL
USER_CHARGES

@<TRIPOS>ATOM
      1 C1         -0.2435    1.2080   -0.9018 C.3       1 <0>        -0.1142
      2 C2         -0.3319   -0.2896   -0.7592 C.2       1 <0>         0.2986
      3 C3         -0.3747   -1.1981   -1.7989 C.2       1 <0>        -0.4034
      4 C4         -0.4577   -2.5327   -1.1846 C.2       1 <0>         0.5572
      5 O1         -0.5140   -3.5999   -1.7666 O.2       1 <0>        -0.5196
      6 N1         -0.4591   -2.3405    0.1509 N.am      1 <0>        -0.3656
      7 N2         -0.3766   -0.9679    0.4032 N.pl3     1 <0>        -0.3447
      8 C5         -0.3470   -0.3577    1.7347 C.3       1 <0>         0.0795
      9 C6          1.0990   -0.2817    2.2288 C.3       1 <0>         0.1126
     10 C7          1.1198    0.2396    3.6671 C.3       1 <0>        -0.1791
     11 C8          1.7278   -1.6757    2.1824 C.3       1 <0>        -0.1453
     12 O2          1.8430    0.6045    1.3902 O.3       1 <0>        -0.5485
     13 C9         -0.5264   -3.3463    1.1205 C.ar      1 <0>         0.1408
     14 C10        -1.4375   -3.2472    2.1640 C.ar      1 <0>        -0.1320
     15 C11        -1.5017   -4.2423    3.1195 C.ar      1 <0>        -0.0997
     16 C12        -0.6598   -5.3363    3.0383 C.ar      1 <0>        -0.1095
     17 C13         0.2485   -5.4381    2.0006 C.ar      1 <0>        -0.0963
     18 C14         0.3138   -4.4492    1.0386 C.ar      1 <0>        -0.0992
     19 C15        -0.3440   -0.8923   -3.2341 C.2       1 <0>         0.6284
     20 O3         -0.2741    0.2633   -3.6086 O.2       1 <0>        -0.5302
     21 N3         -0.3933   -1.8916   -4.1372 N.am      1 <0>        -0.6468
     22 C16        -0.3206   -1.6040   -5.5001 C.ar      1 <0>         0.3935
     23 C17        -0.6104   -0.3201   -5.9484 C.ar      1 <0>        -0.1771
     24 C18        -0.5351   -0.0459   -7.3019 C.ar      1 <0>        -0.0512
     25 C19        -0.1696   -1.0737   -8.1679 C.ar      1 <0>        -0.0584
     26 C20         0.1049   -2.3290   -7.6494 C.ar      1 <0>         0.1630
     27 N4          0.0287   -2.5547   -6.3517 N.ar      1 <0>        -0.4947
     28 O4         -0.0837   -0.8482   -9.5059 O.3       1 <0>        -0.1992
     29 C21         1.0029   -0.1845   -9.9710 C.ar      1 <0>         0.2956
     30 C22         2.0503    0.1478   -9.1289 C.ar      1 <0>        -0.2764
     31 C23         3.1506    0.8279   -9.6336 C.ar      1 <0>         0.2417
     32 N5          3.2319    1.1706  -10.8981 N.ar      1 <0>        -0.4935
     33 C24         2.2566    0.8820  -11.7674 C.ar      1 <0>         0.2092
     34 C25         1.1039    0.1842  -11.3313 C.ar      1 <0>        -0.1425
     35 C26         0.0853   -0.1225  -12.2459 C.ar      1 <0>         0.0028
     36 C27         0.2118    0.2466  -13.5493 C.ar      1 <0>        -0.1935
     37 C28         1.3485    0.9302  -13.9922 C.ar      1 <0>         0.2287
     38 C29         2.3591    1.2568  -13.1170 C.ar      1 <0>        -0.2042
     39 O5          1.4506    1.2870  -15.2988 O.3       1 <0>        -0.2937
     40 C30         0.3632    0.9316  -16.1553 C.3       1 <0>         0.0139
     41 H1          0.8037    1.5089   -0.9318 H         1 <0>         0.1092
     42 H2         -0.7363    1.5149   -1.8244 H         1 <0>         0.1181
     43 H3         -0.7339    1.6834   -0.0524 H         1 <0>         0.0808
     44 H4         -0.7667    0.6469    1.6835 H         1 <0>         0.1175
     45 H5         -0.9354   -0.9625    2.4247 H         1 <0>         0.1130
     46 H6          0.5524   -0.4364    4.3068 H         1 <0>         0.0728
     47 H7          2.1500    0.2937    4.0191 H         1 <0>         0.0787
     48 H8          0.6718    1.2327    3.7002 H         1 <0>         0.0665
     49 H9          1.7130   -2.0471    1.1578 H         1 <0>         0.0635
     50 H10         2.7580   -1.6216    2.5344 H         1 <0>         0.0723
     51 H11         1.1604   -2.3517    2.8221 H         1 <0>         0.0740
     52 H12         1.5000    1.5085    1.3711 H         1 <0>         0.3762
     53 H13        -2.0948   -2.3927    2.2284 H         1 <0>         0.1263
     54 H14        -2.2100   -4.1658    3.9313 H         1 <0>         0.1352
     55 H15        -0.7115   -6.1128    3.7872 H         1 <0>         0.1339
     56 H16         0.9046   -6.2938    1.9400 H         1 <0>         0.1367
     57 H17         1.0203   -4.5314    0.2259 H         1 <0>         0.1320
     58 H18        -0.4793   -2.8107   -3.8393 H         1 <0>         0.4331
     59 H19        -0.8910    0.4531   -5.2485 H         1 <0>         0.1917
     60 H20        -0.7551    0.9421   -7.6786 H         1 <0>         0.1502
     61 H21         0.3886   -3.1309   -8.3148 H         1 <0>         0.1742
     62 H22         2.0115   -0.1206   -8.0835 H         1 <0>         0.1818
     63 H23         3.9616    1.0822   -8.9673 H         1 <0>         0.2122
     64 H24        -0.7972   -0.6507  -11.9163 H         1 <0>         0.1661
     65 H25        -0.5746    0.0086  -14.2502 H         1 <0>         0.1604
     66 H26         3.2328    1.7852  -13.4691 H         1 <0>         0.1667
     67 H27         0.5719    1.2745  -17.1687 H         1 <0>         0.1192
     68 H28         0.2404   -0.1514  -16.1562 H         1 <0>         0.0710
     69 H29        -0.5520    1.4008  -15.7942 H         1 <0>         0.0709
     70 H30         4.0184    1.6450  -11.2100 H         1 <0>         0.4486
@<TRIPOS>BOND
     1    1    2 1
     2    1   41 1
     3    1   42 1
     4    1   43 1
     5    2    7 1
     6    2    3 2
     7    3    4 1
     8    3   19 1
     9    4    5 2
    10    4    6 am
    11    6    7 1
    12    6   13 1
    13    7    8 1
    14    8    9 1
    15    8   44 1
    16    8   45 1
    17    9   10 1
    18    9   11 1
    19    9   12 1
    20   10   46 1
    21   10   47 1
    22   10   48 1
    23   11   49 1
    24   11   50 1
    25   11   51 1
    26   12   52 1
    27   13   18 ar
    28   13   14 ar
    29   14   15 ar
    30   14   53 1
    31   15   16 ar
    32   15   54 1
    33   16   17 ar
    34   16   55 1
    35   17   18 ar
    36   17   56 1
    37   18   57 1
    38   19   20 2
    39   19   21 am
    40   21   22 1
    41   21   58 1
    42   22   27 ar
    43   22   23 ar
    44   23   24 ar
    45   23   59 1
    46   24   25 ar
    47   24   60 1
    48   25   26 ar
    49   25   28 1
    50   26   27 ar
    51   26   61 1
    52   28   29 1
    53   29   34 ar
    54   29   30 ar
    55   30   31 ar
    56   30   62 1
    57   31   32 ar
    58   31   63 1
    59   32   33 ar
    60   32   70 1
    61   33   38 ar
    62   33   34 ar
    63   34   35 ar
    64   35   36 ar
    65   35   64 1
    66   36   37 ar
    67   36   65 1
    68   37   38 ar
    69   37   39 1
    70   38   66 1
    71   39   40 1
    72   40   67 1
    73   40   68 1
    74   40   69 1
@<TRIPOS>MOLECULE
CHEMBL460472__1
   69    73     0     0     0
SMALL
USER_CHARGES

@<TRIPOS>ATOM
      1 C1         -0.1991    1.2825   -0.8197 C.3       1 <0>        -0.1065
      2 C2         -0.2797   -0.2172   -0.6963 C.2       1 <0>         0.3023
      3 C3         -0.3307   -1.1119   -1.7475 C.2       1 <0>        -0.3987
      4 C4         -0.4010   -2.4549   -1.1502 C.2       1 <0>         0.5565
      5 O1         -0.4596   -3.5144   -1.7459 O.2       1 <0>        -0.5190
      6 N1         -0.3878   -2.2807    0.1876 N.am      1 <0>        -0.3702
      7 N2         -0.3081   -0.9112    0.4574 N.pl3     1 <0>        -0.3526
      8 C5         -0.2656   -0.3188    1.7966 C.3       1 <0>         0.1252
      9 C6          1.1858   -0.2423    2.2746 C.3       1 <0>         0.1102
     10 C7          1.2211    0.2598    3.7194 C.3       1 <0>        -0.1782
     11 C8          1.8206   -1.6324    2.2020 C.3       1 <0>        -0.1846
     12 O2          1.9155    0.6588    1.4393 O.3       1 <0>        -0.5550
     13 C9         -0.4397   -3.2997    1.1443 C.ar      1 <0>         0.1474
     14 C10        -1.3386   -3.2181    2.1999 C.ar      1 <0>        -0.1339
     15 C11        -1.3877   -4.2262    3.1426 C.ar      1 <0>        -0.1004
     16 C12        -0.5427   -5.3157    3.0366 C.ar      1 <0>        -0.1138
     17 C13         0.3535   -5.4000    1.9868 C.ar      1 <0>        -0.0968
     18 C14         0.4036   -4.3980    1.0376 C.ar      1 <0>        -0.1008
     19 C15        -0.3179   -0.7868   -3.1787 C.2       1 <0>         0.6236
     20 O3         -0.2571    0.3741   -3.5384 O.2       1 <0>        -0.5300
     21 N3         -0.3735   -1.7740   -4.0945 N.am      1 <0>        -0.6472
     22 C16        -0.3157   -1.4681   -5.4542 C.ar      1 <0>         0.3679
     23 C17        -0.6160   -0.1798   -5.8824 C.ar      1 <0>        -0.1750
     24 C18        -0.5556    0.1127   -7.2329 C.ar      1 <0>        -0.0623
     25 C19        -0.1939   -0.9017   -8.1160 C.ar      1 <0>        -0.0087
     26 C20         0.0918   -2.1624   -7.6170 C.ar      1 <0>         0.1404
     27 N4          0.0296   -2.4057   -6.3217 N.ar      1 <0>        -0.4965
     28 O4         -0.1224   -0.6581   -9.4517 O.3       1 <0>        -0.2369
     29 C21         0.9564    0.0171   -9.9186 C.ar      1 <0>         0.1949
     30 C22         2.0105    0.3433   -9.0826 C.ar      1 <0>        -0.2775
     31 C23         3.1024    1.0355   -9.5890 C.ar      1 <0>         0.1803
     32 N5          3.1695    1.3954  -10.8497 N.ar      1 <0>        -0.5021
     33 C24         2.1871    1.1132  -11.7131 C.ar      1 <0>         0.1970
     34 C25         1.0420    0.4044  -11.2748 C.ar      1 <0>        -0.1488
     35 C26         0.0157    0.1049  -12.1833 C.ar      1 <0>        -0.0338
     36 C27         0.1275    0.4919  -13.4828 C.ar      1 <0>        -0.2017
     37 C28         1.2564    1.1869  -13.9278 C.ar      1 <0>         0.1577
     38 C29         2.2745    1.5061  -13.0586 C.ar      1 <0>        -0.1526
     39 O5          1.3437    1.5616  -15.2305 O.3       1 <0>        -0.3117
     40 C30         0.2496    1.2123  -16.0808 C.3       1 <0>         0.0241
     41 H1          0.8464    1.5883   -0.8577 H         1 <0>         0.1094
     42 H2         -0.7038    1.5996   -1.7323 H         1 <0>         0.1146
     43 H3         -0.6817    1.7444    0.0416 H         1 <0>         0.0788
     44 H4         -0.6908    0.6843    1.7638 H         1 <0>         0.1203
     45 H5         -0.8429   -0.9357    2.4853 H         1 <0>         0.1132
     46 H6          0.6645   -0.4275    4.3566 H         1 <0>         0.0704
     47 H7          2.2551    0.3143    4.0600 H         1 <0>         0.0709
     48 H8          0.7688    1.2502    3.7711 H         1 <0>         0.0713
     49 H9          1.7955   -1.9901    1.1727 H         1 <0>         0.0661
     50 H10         2.8546   -1.5779    2.5425 H         1 <0>         0.0661
     51 H11         1.2640   -2.3197    2.8391 H         1 <0>         0.0691
     52 H12         2.8457    0.7567    1.6846 H         1 <0>         0.3854
     53 H13        -1.9983   -2.3671    2.2836 H         1 <0>         0.1266
     54 H14        -2.0864   -4.1634    3.9636 H         1 <0>         0.1335
     55 H15        -0.5825   -6.1024    3.7755 H         1 <0>         0.1318
     56 H16         1.0120   -6.2522    1.9069 H         1 <0>         0.1351
     57 H17         1.1006   -4.4666    0.2155 H         1 <0>         0.1321
     58 H18        -0.4536   -2.6973   -3.8081 H         1 <0>         0.4281
     59 H19        -0.8933    0.5827   -5.1696 H         1 <0>         0.1844
     60 H20        -0.7840    1.1046   -7.5942 H         1 <0>         0.1456
     61 H21         0.3727   -2.9541   -8.2958 H         1 <0>         0.1689
     62 H22         1.9835    0.0608   -8.0406 H         1 <0>         0.1389
     63 H23         3.9189    1.2849   -8.9275 H         1 <0>         0.1631
     64 H24        -0.8608   -0.4320  -11.8520 H         1 <0>         0.1396
     65 H25        -0.6648    0.2594  -14.1790 H         1 <0>         0.1371
     66 H26         3.1421    2.0434  -13.4123 H         1 <0>         0.1469
     67 H27         0.1319    0.1288  -16.0949 H         1 <0>         0.0586
     68 H28        -0.6642    1.6721  -15.7044 H         1 <0>         0.0584
     69 H29         0.4464    1.5697  -17.0915 H         1 <0>         0.1037
@<TRIPOS>BOND
     1    1    2 1
     2    1   41 1
     3    1   42 1
     4    1   43 1
     5    2    7 1
     6    2    3 2
     7    3    4 1
     8    3   19 1
     9    4    5 2
    10    4    6 am
    11    6    7 1
    12    6   13 1
    13    7    8 1
    14    8    9 1
    15    8   44 1
    16    8   45 1
    17    9   10 1
    18    9   11 1
    19    9   12 1
    20   10   46 1
    21   10   47 1
    22   10   48 1
    23   11   49 1
    24   11   50 1
    25   11   51 1
    26   12   52 1
    27   13   18 ar
    28   13   14 ar
    29   14   15 ar
    30   14   53 1
    31   15   16 ar
    32   15   54 1
    33   16   17 ar
    34   16   55 1
    35   17   18 ar
    36   17   56 1
    37   18   57 1
    38   19   20 2
    39   19   21 am
    40   21   22 1
    41   21   58 1
    42   22   27 ar
    43   22   23 ar
    44   23   24 ar
    45   23   59 1
    46   24   25 ar
    47   24   60 1
    48   25   26 ar
    49   25   28 1
    50   26   27 ar
    51   26   61 1
    52   28   29 1
    53   29   34 ar
    54   29   30 ar
    55   30   31 ar
    56   30   62 1
    57   31   32 ar
    58   31   63 1
    59   32   33 ar
    60   33   38 ar
    61   33   34 ar
    62   34   35 ar
    63   35   36 ar
    64   35   64 1
    65   36   37 ar
    66   36   65 1
    67   37   38 ar
    68   37   39 1
    69   38   66 1
    70   39   40 1
    71   40   67 1
    72   40   68 1
    73   40   69 1
@<TRIPOS>MOLECULE
CHEMBL423312
   60    64     0     0     0
SMALL
USER_CHARGES

@<TRIPOS>ATOM
      1 C1         -1.4166    1.1771    0.2225 C.3       1 <0>        -0.1167
      2 C2         -0.7170   -0.1517    0.0958 C.ar      1 <0>        -0.0854
      3 C3         -0.7321   -0.8289   -1.1083 C.ar      1 <0>        -0.1057
      4 C4         -0.0903   -2.0478   -1.2262 C.ar      1 <0>        -0.1074
      5 C5          0.5690   -2.5937   -0.1399 C.ar      1 <0>        -0.1069
      6 C6          0.5881   -1.9218    1.0674 C.ar      1 <0>        -0.0244
      7 C7         -0.0519   -0.6936    1.1872 C.ar      1 <0>         0.1453
      8 N1         -0.0304   -0.0078    2.4064 N.am      1 <0>        -0.6721
      9 C8         -0.4049   -0.6349    3.5391 C.2       1 <0>         0.5612
     10 O1         -0.6645   -1.8228    3.5191 O.2       1 <0>        -0.4970
     11 C9         -0.4999    0.1194    4.8025 C.ar      1 <0>        -0.1304
     12 C10        -0.2087    1.4905    4.8364 C.ar      1 <0>        -0.0724
     13 C11        -0.2896    2.2028    5.9868 C.ar      1 <0>        -0.0740
     14 C12        -0.6733    1.5857    7.2037 C.ar      1 <0>         0.1454
     15 C13        -0.9628    0.2004    7.1437 C.ar      1 <0>        -0.1707
     16 C14        -0.8876   -0.5211    5.9845 C.ar      1 <0>         0.0145
     17 S1         -1.3881   -0.1707    8.8285 S.3       1 <0>         0.0176
     18 C15        -1.1633    1.4767    9.4840 C.2       1 <0>         0.3922
     19 N2         -0.7976    2.1550    8.4182 N.2       1 <0>        -0.5053
     20 N3         -1.3305    1.9236   10.7796 N.pl3     1 <0>        -0.5876
     21 C16        -1.2094    3.2758   11.0685 C.ar      1 <0>         0.4141
     22 C17        -1.4865    3.7548   12.3502 C.ar      1 <0>        -0.2630
     23 C18        -1.3513    5.1087   12.5876 C.ar      1 <0>         0.2032
     24 N4         -0.9659    5.9031   11.5989 N.ar      1 <0>        -0.5376
     25 C19        -0.7117    5.4199   10.3996 C.ar      1 <0>         0.3671
     26 N5         -0.8224    4.1347   10.1304 N.ar      1 <0>        -0.4966
     27 C20        -0.2764    6.3623    9.3072 C.3       1 <0>         0.1266
     28 N6          1.1884    6.4734    9.3113 N.3       1 <0>        -0.5277
     29 C21         1.6637    7.1280   10.5389 C.3       1 <0>         0.0186
     30 C22         3.1941    7.1692   10.5291 C.3       1 <0>         0.0643
     31 O2          3.6403    7.8425    9.3489 O.3       1 <0>        -0.3845
     32 C23         3.1961    7.2313    8.1346 C.3       1 <0>         0.0641
     33 C24         1.6657    7.1907    8.1202 C.3       1 <0>         0.0215
     34 C25        -1.6389    5.6760   13.9538 C.3       1 <0>        -0.1072
     35 Cl1         1.4153   -2.6077    2.4309 Cl        1 <0>        -0.0445
     36 H1         -0.7235    1.9785   -0.0332 H         1 <0>         0.0758
     37 H2         -2.2699    1.2046   -0.4552 H         1 <0>         0.0748
     38 H3         -1.7626    1.3092    1.2477 H         1 <0>         0.0684
     39 H4         -1.2463   -0.4057   -1.9586 H         1 <0>         0.1335
     40 H5         -0.1042   -2.5750   -2.1687 H         1 <0>         0.1347
     41 H6          1.0691   -3.5462   -0.2353 H         1 <0>         0.1365
     42 H7          0.2541    0.9191    2.4365 H         1 <0>         0.4111
     43 H8          0.0871    1.9901    3.9257 H         1 <0>         0.1338
     44 H9         -0.0577    3.2576    5.9761 H         1 <0>         0.1406
     45 H10        -1.1212   -1.5755    5.9821 H         1 <0>         0.1466
     46 H11        -1.5325    1.2925   11.4880 H         1 <0>         0.4426
     47 H12        -1.7992    3.0835   13.1364 H         1 <0>         0.1496
     48 H13        -0.6090    5.9788    8.3426 H         1 <0>         0.1046
     49 H14        -0.7158    7.3450    9.4787 H         1 <0>         0.0655
     50 H15         1.2725    8.1444   10.5843 H         1 <0>         0.0488
     51 H16         1.3203    6.5660   11.4074 H         1 <0>         0.0866
     52 H17         3.5494    7.7043   11.4098 H         1 <0>         0.0985
     53 H18         3.5857    6.1520   10.5379 H         1 <0>         0.0567
     54 H19         3.5529    7.8113    7.2835 H         1 <0>         0.1005
     55 H20         3.5877    6.2159    8.0738 H         1 <0>         0.0600
     56 H21         1.3238    6.6745    7.2231 H         1 <0>         0.0900
     57 H22         1.2746    8.2081    8.1269 H         1 <0>         0.0470
     58 H23        -0.7264    5.6679   14.5500 H         1 <0>         0.0879
     59 H24        -1.9984    6.7001   13.8536 H         1 <0>         0.0853
     60 H25        -2.3998    5.0703   14.4459 H         1 <0>         0.0821
@<TRIPOS>BOND
     1    1    2 1
     2    1   36 1
     3    1   37 1
     4    1   38 1
     5    2    7 ar
     6    2    3 ar
     7    3    4 ar
     8    3   39 1
     9    4    5 ar
    10    4   40 1
    11    5    6 ar
    12    5   41 1
    13    6    7 ar
    14    6   35 1
    15    7    8 1
    16    8    9 am
    17    8   42 1
    18    9   10 2
    19    9   11 1
    20   11   16 ar
    21   11   12 ar
    22   12   13 ar
    23   12   43 1
    24   13   14 ar
    25   13   44 1
    26   14   19 1
    27   14   15 ar
    28   15   16 ar
    29   15   17 1
    30   16   45 1
    31   17   18 1
    32   18   19 2
    33   18   20 1
    34   20   21 1
    35   20   46 1
    36   21   26 ar
    37   21   22 ar
    38   22   23 ar
    39   22   47 1
    40   23   24 ar
    41   23   34 1
    42   24   25 ar
    43   25   26 ar
    44   25   27 1
    45   27   28 1
    46   27   48 1
    47   27   49 1
    48   28   33 1
    49   28   29 1
    50   29   30 1
    51   29   50 1
    52   29   51 1
    53   30   31 1
    54   30   52 1
    55   30   53 1
    56   31   32 1
    57   32   33 1
    58   32   54 1
    59   32   55 1
    60   33   56 1
    61   33   57 1
    62   34   58 1
    63   34   59 1
    64   34   60 1
@<TRIPOS>MOLECULE
CHEMBL475609
   58    61     0     0     0
SMALL
USER_CHARGES

@<TRIPOS>ATOM
      1 C1          0.6675    0.1787    2.8588 C.3       1 <0>         0.0258
      2 O1          0.4448   -0.8103    1.8517 O.3       1 <0>        -0.3077
      3 C2         -0.7524   -1.4530    1.8722 C.ar      1 <0>         0.2097
      4 C3         -1.0317   -2.4282    0.9271 C.ar      1 <0>        -0.2288
      5 C4         -2.2550   -3.0847    0.9482 C.ar      1 <0>         0.2753
      6 C5         -3.1976   -2.7640    1.9160 C.ar      1 <0>        -0.2434
      7 C6         -2.9167   -1.7886    2.8603 C.ar      1 <0>         0.1959
      8 C7         -1.6923   -1.1373    2.8420 C.ar      1 <0>        -0.3299
      9 O2         -3.8390   -1.4746    3.8076 O.3       1 <0>        -0.3232
     10 C8         -3.4827   -0.4602    4.7489 C.3       1 <0>         0.0251
     11 N1         -2.5375   -4.0677   -0.0045 N.pl3     1 <0>        -0.6371
     12 C9         -3.7131   -4.7835    0.0715 C.2       1 <0>         0.4845
     13 C10        -3.6793   -6.1851    0.1661 C.2       1 <0>        -0.2260
     14 C11        -4.9635   -6.8882    0.2443 C.2       1 <0>         0.2783
     15 N2         -5.3265   -8.1466    0.3385 N.2       1 <0>        -0.2874
     16 N3         -6.6114   -8.2245    0.3742 N.2       1 <0>        -0.2213
     17 C12        -7.1413   -7.0329    0.3056 C.2       1 <0>         0.1304
     18 N4         -6.1163   -6.1351    0.2203 N.pl3     1 <0>        -0.4664
     19 C13        -6.0372   -4.7764    0.1256 C.2       1 <0>         0.6499
     20 N5         -4.8858   -4.1467    0.0610 N.2       1 <0>        -0.5526
     21 N6         -7.1934   -4.0459    0.1032 N.pl3     1 <0>        -0.7094
     22 C14        -7.1354   -2.5855    0.0020 C.3       1 <0>         0.1433
     23 H1         -6.2661   -2.2178    0.5472 H         1 <0>         0.1325
     24 C15        -7.0238   -2.1802   -1.4691 C.3       1 <0>        -0.1302
     25 C16        -8.2440   -2.6964   -2.2343 C.3       1 <0>        -0.1310
     26 C17        -9.5153   -2.0927   -1.6340 C.3       1 <0>        -0.1191
     27 C18        -9.6269   -2.4980   -0.1629 C.3       1 <0>        -0.1437
     28 C19        -8.4067   -1.9818    0.6023 C.3       1 <0>         0.0184
     29 H2         -8.3635   -0.8953    0.5270 H         1 <0>         0.1672
     30 N7         -8.5139   -2.3710    2.0148 N.4       1 <0>        -0.6388
     31 C20        -2.4120   -6.9144    0.1853 C.2       1 <0>         0.5835
     32 O3         -1.3588   -6.3042    0.2194 O.2       1 <0>        -0.5337
     33 N8         -2.4097   -8.2620    0.1653 N.am      1 <0>        -0.8408
     34 H3          1.6586    0.6133    2.7285 H         1 <0>         0.1068
     35 H4         -0.0865    0.9612    2.7726 H         1 <0>         0.0569
     36 H5          0.6002   -0.2838    3.8435 H         1 <0>         0.0580
     37 H6         -0.2981   -2.6768    0.1745 H         1 <0>         0.1402
     38 H7         -4.1494   -3.2740    1.9329 H         1 <0>         0.1257
     39 H8         -1.4722   -0.3809    3.5808 H         1 <0>         0.1358
     40 H9         -4.3056   -0.3074    5.4473 H         1 <0>         0.1015
     41 H10        -2.5933   -0.7699    5.2976 H         1 <0>         0.0601
     42 H11        -3.2776    0.4705    4.2199 H         1 <0>         0.0586
     43 H12        -1.9064   -4.2461   -0.7192 H         1 <0>         0.4357
     44 H13        -8.1960   -6.8006    0.3142 H         1 <0>         0.2312
     45 H14        -8.0518   -4.4948    0.1543 H         1 <0>         0.4139
     46 H15        -6.9806   -1.0937   -1.5443 H         1 <0>         0.0936
     47 H16        -6.1181   -2.6103   -1.8967 H         1 <0>         0.0946
     48 H17        -8.1645   -2.4077   -3.2823 H         1 <0>         0.0851
     49 H18        -8.2872   -3.7829   -2.1590 H         1 <0>         0.0660
     50 H19        -9.4721   -1.0062   -1.7093 H         1 <0>         0.0819
     51 H20       -10.3846   -2.4604   -2.1792 H         1 <0>         0.0899
     52 H21       -10.5326   -2.0679    0.2647 H         1 <0>         0.1002
     53 H22        -9.6701   -3.5845   -0.0877 H         1 <0>         0.0812
     54 H23        -7.7092   -2.0306    2.5194 H         1 <0>         0.4421
     55 H24        -9.3523   -1.9728    2.4106 H         1 <0>         0.4417
     56 H25        -3.2486   -8.7481    0.1382 H         1 <0>         0.4118
     57 H26        -1.5690   -8.7458    0.1780 H         1 <0>         0.4100
     58 H27        -8.5539   -3.3768    2.0844 H         1 <0>         0.4279
@<TRIPOS>BOND
     1    1    2 1
     2    1   34 1
     3    1   35 1
     4    1   36 1
     5    2    3 1
     6    3    8 ar
     7    3    4 ar
     8    4    5 ar
     9    4   37 1
    10    5    6 ar
    11    5   11 1
    12    6    7 ar
    13    6   38 1
    14    7    8 ar
    15    7    9 1
    16    8   39 1
    17    9   10 1
    18   10   40 1
    19   10   41 1
    20   10   42 1
    21   11   12 1
    22   11   43 1
    23   12   20 1
    24   12   13 2
    25   13   14 1
    26   13   31 1
    27   14   18 1
    28   14   15 2
    29   15   16 1
    30   16   17 2
    31   17   18 1
    32   17   44 1
    33   18   19 1
    34   19   20 2
    35   19   21 1
    36   21   22 1
    37   21   45 1
    38   22   23 1
    39   22   28 1
    40   22   24 1
    41   24   25 1
    42   24   46 1
    43   24   47 1
    44   25   26 1
    45   25   48 1
    46   25   49 1
    47   26   27 1
    48   26   50 1
    49   26   51 1
    50   27   28 1
    51   27   52 1
    52   27   53 1
    53   28   29 1
    54   28   30 1
    55   30   54 1
    56   30   55 1
    57   30   58 1
    58   31   32 2
    59   31   33 am
    60   33   56 1
    61   33   57 1
@<TRIPOS>MOLECULE
CHEMBL68887
   52    56     0     0     0
SMALL
USER_CHARGES

@<TRIPOS>ATOM
      1 C1         -2.3214    0.0994    0.8118 C.3       1 <0>        -0.1147
      2 C2         -1.1016   -0.6762    0.3859 C.ar      1 <0>        -0.0626
      3 C3         -1.0990   -1.3545   -0.8177 C.ar      1 <0>        -0.1116
      4 C4          0.0194   -2.0665   -1.2097 C.ar      1 <0>        -0.0948
      5 C5          1.1395   -2.1026   -0.3991 C.ar      1 <0>        -0.1131
      6 C6          1.1439   -1.4261    0.8058 C.ar      1 <0>        -0.0212
      7 C7          0.0226   -0.7051    1.2000 C.ar      1 <0>         0.1388
      8 N1          0.0251   -0.0145    2.4167 N.am      1 <0>        -0.6792
      9 C8         -0.3549   -0.6410    3.5479 C.2       1 <0>         0.5730
     10 O1         -0.6122   -1.8294    3.5278 O.2       1 <0>        -0.5126
     11 C9         -0.4587    0.1146    4.8100 C.ar      1 <0>        -0.1299
     12 C10        -0.1701    1.4863    4.8440 C.ar      1 <0>        -0.0707
     13 C11        -0.2590    2.2000    5.9930 C.ar      1 <0>        -0.0731
     14 C12        -0.6487    1.5837    7.2083 C.ar      1 <0>         0.1409
     15 C13        -0.9349    0.1976    7.1485 C.ar      1 <0>        -0.1685
     16 C14        -0.8521   -0.5251    5.9901 C.ar      1 <0>         0.0136
     17 S1         -1.3695   -0.1718    8.8313 S.3       1 <0>         0.0235
     18 C15        -1.1520    1.4772    9.4855 C.2       1 <0>         0.3869
     19 N2         -0.7816    2.1540    8.4214 N.2       1 <0>        -0.5130
     20 N3         -1.3285    1.9268   10.7822 N.am      1 <0>        -0.6148
     21 C16        -1.1121    3.2231   11.0814 C.2       1 <0>         0.5288
     22 O2         -0.7627    3.9953   10.2141 O.2       1 <0>        -0.4351
     23 C17        -1.3044    3.7127   12.4936 C.3       1 <0>        -0.1849
     24 C18        -2.4763    4.6597   12.7595 C.3       1 <0>        -0.1438
     25 C19        -1.0430    5.1948   12.7691 C.3       1 <0>        -0.0716
     26 C20        -0.6129    6.0532   11.6075 C.ar      1 <0>        -0.0590
     27 C21        -1.4371    6.1893   10.5062 C.ar      1 <0>        -0.0594
     28 C22        -1.0426    6.9767    9.4407 C.ar      1 <0>        -0.1211
     29 C23         0.1759    7.6284    9.4768 C.ar      1 <0>        -0.1152
     30 C24         0.9997    7.4931   10.5785 C.ar      1 <0>        -0.1276
     31 C25         0.6034    6.7091   11.6458 C.ar      1 <0>        -0.1085
     32 Cl1         2.5499   -1.4716    1.8231 Cl        1 <0>        -0.0570
     33 H1         -2.2503    1.1215    0.4398 H         1 <0>         0.0771
     34 H2         -3.2142   -0.3745    0.4037 H         1 <0>         0.0737
     35 H3         -2.3822    0.1123    1.9000 H         1 <0>         0.0673
     36 H4         -1.9719   -1.3288   -1.4531 H         1 <0>         0.1347
     37 H5          0.0184   -2.5960   -2.1510 H         1 <0>         0.1368
     38 H6          2.0112   -2.6603   -0.7079 H         1 <0>         0.1381
     39 H7          0.3003    0.9151    2.4462 H         1 <0>         0.4104
     40 H8          0.1300    1.9853    3.9344 H         1 <0>         0.1361
     41 H9         -0.0288    3.2551    5.9822 H         1 <0>         0.1414
     42 H10        -1.0838   -1.5799    5.9876 H         1 <0>         0.1481
     43 H11        -1.6080    1.3091   11.4759 H         1 <0>         0.4299
     44 H12        -1.0438    3.0015   13.2773 H         1 <0>         0.1362
     45 H13        -3.1082    4.9286   11.9130 H         1 <0>         0.1065
     46 H14        -2.9870    4.5716   13.7184 H         1 <0>         0.1166
     47 H15        -0.6107    5.4587   13.7343 H         1 <0>         0.1275
     48 H16        -2.3891    5.6801   10.4780 H         1 <0>         0.1095
     49 H17        -1.6863    7.0824    8.5799 H         1 <0>         0.1155
     50 H18         0.4844    8.2430    8.6440 H         1 <0>         0.1168
     51 H19         1.9519    8.0020   10.6066 H         1 <0>         0.1182
     52 H20         1.2453    6.6064   12.5082 H         1 <0>         0.1170
@<TRIPOS>BOND
     1    1    2 1
     2    1   33 1
     3    1   34 1
     4    1   35 1
     5    2    7 ar
     6    2    3 ar
     7    3    4 ar
     8    3   36 1
     9    4    5 ar
    10    4   37 1
    11    5    6 ar
    12    5   38 1
    13    6    7 ar
    14    6   32 1
    15    7    8 1
    16    8    9 am
    17    8   39 1
    18    9   10 2
    19    9   11 1
    20   11   16 ar
    21   11   12 ar
    22   12   13 ar
    23   12   40 1
    24   13   14 ar
    25   13   41 1
    26   14   19 1
    27   14   15 ar
    28   15   16 ar
    29   15   17 1
    30   16   42 1
    31   17   18 1
    32   18   19 2
    33   18   20 1
    34   20   21 am
    35   20   43 1
    36   21   22 2
    37   21   23 1
    38   23   25 1
    39   23   24 1
    40   23   44 1
    41   24   25 1
    42   24   45 1
    43   24   46 1
    44   25   26 1
    45   25   47 1
    46   26   31 ar
    47   26   27 ar
    48   27   28 ar
    49   27   48 1
    50   28   29 ar
    51   28   49 1
    52   29   30 ar
    53   29   50 1
    54   30   31 ar
    55   30   51 1
    56   31   52 1
@<TRIPOS>MOLECULE
CHEMBL68887__1
   52    56     0     0     0
SMALL
USER_CHARGES

@<TRIPOS>ATOM
      1 C1         -2.3214    0.0994    0.8118 C.3       1 <0>        -0.1147
      2 C2         -1.1016   -0.6762    0.3859 C.ar      1 <0>        -0.0626
      3 C3         -1.0990   -1.3545   -0.8177 C.ar      1 <0>        -0.1116
      4 C4          0.0194   -2.0665   -1.2097 C.ar      1 <0>        -0.0947
      5 C5          1.1395   -2.1026   -0.3991 C.ar      1 <0>        -0.1130
      6 C6          1.1439   -1.4261    0.8058 C.ar      1 <0>        -0.0212
      7 C7          0.0226   -0.7051    1.2000 C.ar      1 <0>         0.1388
      8 N1          0.0251   -0.0145    2.4167 N.am      1 <0>        -0.6791
      9 C8         -0.3549   -0.6410    3.5479 C.2       1 <0>         0.5729
     10 O1         -0.6122   -1.8294    3.5278 O.2       1 <0>        -0.5124
     11 C9         -0.4587    0.1146    4.8100 C.ar      1 <0>        -0.1289
     12 C10        -0.1701    1.4863    4.8440 C.ar      1 <0>        -0.0707
     13 C11        -0.2590    2.2000    5.9930 C.ar      1 <0>        -0.0727
     14 C12        -0.6487    1.5837    7.2083 C.ar      1 <0>         0.1393
     15 C13        -0.9349    0.1976    7.1485 C.ar      1 <0>        -0.1682
     16 C14        -0.8521   -0.5251    5.9901 C.ar      1 <0>         0.0135
     17 S1         -1.3695   -0.1718    8.8313 S.3       1 <0>         0.0295
     18 C15        -1.1520    1.4772    9.4855 C.2       1 <0>         0.3841
     19 N2         -0.7816    2.1540    8.4214 N.2       1 <0>        -0.5150
     20 N3         -1.3285    1.9268   10.7822 N.am      1 <0>        -0.6131
     21 C16        -1.1121    3.2231   11.0814 C.2       1 <0>         0.5405
     22 O2         -0.7627    3.9953   10.2141 O.2       1 <0>        -0.4592
     23 C17        -1.3044    3.7127   12.4936 C.3       1 <0>        -0.1816
     24 C18        -2.4763    4.6597   12.7595 C.3       1 <0>        -0.1397
     25 C19        -1.0430    5.1948   12.7691 C.3       1 <0>        -0.0728
     26 C20        -0.4453    5.5596   14.1036 C.ar      1 <0>        -0.0604
     27 C21        -1.1120    5.2370   15.2708 C.ar      1 <0>        -0.1190
     28 C22        -0.5638    5.5716   16.4949 C.ar      1 <0>        -0.1171
     29 C23         0.6512    6.2285   16.5518 C.ar      1 <0>        -0.1195
     30 C24         1.3183    6.5503   15.3846 C.ar      1 <0>        -0.1166
     31 C25         0.7722    6.2118   14.1606 C.ar      1 <0>        -0.1069
     32 Cl1         2.5499   -1.4716    1.8231 Cl        1 <0>        -0.0570
     33 H1         -2.2503    1.1215    0.4398 H         1 <0>         0.0772
     34 H2         -3.2142   -0.3745    0.4037 H         1 <0>         0.0737
     35 H3         -2.3822    0.1123    1.9000 H         1 <0>         0.0674
     36 H4         -1.9719   -1.3288   -1.4531 H         1 <0>         0.1348
     37 H5          0.0184   -2.5960   -2.1510 H         1 <0>         0.1368
     38 H6          2.0112   -2.6603   -0.7079 H         1 <0>         0.1381
     39 H7          0.3003    0.9151    2.4462 H         1 <0>         0.4105
     40 H8          0.1300    1.9853    3.9344 H         1 <0>         0.1368
     41 H9         -0.0288    3.2551    5.9822 H         1 <0>         0.1423
     42 H10        -1.0838   -1.5799    5.9876 H         1 <0>         0.1486
     43 H11        -1.6080    1.3091   11.4759 H         1 <0>         0.4327
     44 H12        -1.0438    3.0015   13.2773 H         1 <0>         0.1349
     45 H13        -3.1082    4.9286   11.9130 H         1 <0>         0.1091
     46 H14        -2.9870    4.5716   13.7184 H         1 <0>         0.1156
     47 H15        -0.7319    5.8157   11.9290 H         1 <0>         0.1302
     48 H16        -2.0612    4.7239   15.2264 H         1 <0>         0.1242
     49 H17        -1.0849    5.3202   17.4068 H         1 <0>         0.1239
     50 H18         1.0792    6.4905   17.5081 H         1 <0>         0.1231
     51 H19         2.2674    7.0637   15.4290 H         1 <0>         0.1245
     52 H20         1.2951    6.4599   13.2488 H         1 <0>         0.1245
@<TRIPOS>BOND
     1    1    2 1
     2    1   33 1
     3    1   34 1
     4    1   35 1
     5    2    7 ar
     6    2    3 ar
     7    3    4 ar
     8    3   36 1
     9    4    5 ar
    10    4   37 1
    11    5    6 ar
    12    5   38 1
    13    6    7 ar
    14    6   32 1
    15    7    8 1
    16    8    9 am
    17    8   39 1
    18    9   10 2
    19    9   11 1
    20   11   16 ar
    21   11   12 ar
    22   12   13 ar
    23   12   40 1
    24   13   14 ar
    25   13   41 1
    26   14   19 1
    27   14   15 ar
    28   15   16 ar
    29   15   17 1
    30   16   42 1
    31   17   18 1
    32   18   19 2
    33   18   20 1
    34   20   21 am
    35   20   43 1
    36   21   22 2
    37   21   23 1
    38   23   25 1
    39   23   24 1
    40   23   44 1
    41   24   25 1
    42   24   45 1
    43   24   46 1
    44   25   26 1
    45   25   47 1
    46   26   31 ar
    47   26   27 ar
    48   27   28 ar
    49   27   48 1
    50   28   29 ar
    51   28   49 1
    52   29   30 ar
    53   29   50 1
    54   30   31 ar
    55   30   51 1
    56   31   52 1
@<TRIPOS>MOLECULE
CHEMBL68887__2
   52    56     0     0     0
SMALL
USER_CHARGES

@<TRIPOS>ATOM
      1 C1         -2.3214    0.0994    0.8118 C.3       1 <0>        -0.1148
      2 C2         -1.1016   -0.6762    0.3859 C.ar      1 <0>        -0.0626
      3 C3         -1.0990   -1.3545   -0.8177 C.ar      1 <0>        -0.1116
      4 C4          0.0194   -2.0665   -1.2097 C.ar      1 <0>        -0.0947
      5 C5          1.1395   -2.1026   -0.3991 C.ar      1 <0>        -0.1130
      6 C6          1.1439   -1.4261    0.8058 C.ar      1 <0>        -0.0212
      7 C7          0.0226   -0.7051    1.2000 C.ar      1 <0>         0.1388
      8 N1          0.0251   -0.0145    2.4167 N.am      1 <0>        -0.6791
      9 C8         -0.3549   -0.6410    3.5479 C.2       1 <0>         0.5729
     10 O1         -0.6122   -1.8294    3.5278 O.2       1 <0>        -0.5124
     11 C9         -0.4587    0.1146    4.8100 C.ar      1 <0>        -0.1289
     12 C10        -0.1701    1.4863    4.8440 C.ar      1 <0>        -0.0707
     13 C11        -0.2590    2.2000    5.9930 C.ar      1 <0>        -0.0726
     14 C12        -0.6487    1.5837    7.2083 C.ar      1 <0>         0.1393
     15 C13        -0.9349    0.1976    7.1485 C.ar      1 <0>        -0.1682
     16 C14        -0.8521   -0.5251    5.9901 C.ar      1 <0>         0.0135
     17 S1         -1.3695   -0.1718    8.8313 S.3       1 <0>         0.0295
     18 C15        -1.1520    1.4772    9.4855 C.2       1 <0>         0.3841
     19 N2         -0.7816    2.1540    8.4214 N.2       1 <0>        -0.5150
     20 N3         -1.3285    1.9268   10.7822 N.am      1 <0>        -0.6131
     21 C16        -1.1121    3.2231   11.0814 C.2       1 <0>         0.5405
     22 O2         -0.7627    3.9953   10.2141 O.2       1 <0>        -0.4592
     23 C17        -1.3044    3.7127   12.4936 C.3       1 <0>        -0.1814
     24 C18        -0.0565    4.1380   13.2699 C.3       1 <0>        -0.1398
     25 C19        -1.0430    5.1948   12.7691 C.3       1 <0>        -0.0728
     26 C20        -1.9127    5.8760   13.7941 C.ar      1 <0>        -0.0605
     27 C21        -1.9275    5.4218   15.0996 C.ar      1 <0>        -0.1189
     28 C22        -2.7253    6.0466   16.0398 C.ar      1 <0>        -0.1172
     29 C23        -3.5080    7.1259   15.6746 C.ar      1 <0>        -0.1195
     30 C24        -3.4925    7.5808   14.3693 C.ar      1 <0>        -0.1166
     31 C25        -2.6914    6.9586   13.4301 C.ar      1 <0>        -0.1068
     32 Cl1         2.5499   -1.4716    1.8231 Cl        1 <0>        -0.0571
     33 H1         -2.2503    1.1215    0.4398 H         1 <0>         0.0772
     34 H2         -3.2142   -0.3745    0.4037 H         1 <0>         0.0737
     35 H3         -2.3822    0.1123    1.9000 H         1 <0>         0.0674
     36 H4         -1.9719   -1.3288   -1.4531 H         1 <0>         0.1347
     37 H5          0.0184   -2.5960   -2.1510 H         1 <0>         0.1368
     38 H6          2.0112   -2.6603   -0.7079 H         1 <0>         0.1382
     39 H7          0.3003    0.9151    2.4462 H         1 <0>         0.4105
     40 H8          0.1300    1.9853    3.9344 H         1 <0>         0.1368
     41 H9         -0.0288    3.2551    5.9822 H         1 <0>         0.1423
     42 H10        -1.0838   -1.5799    5.9876 H         1 <0>         0.1486
     43 H11        -1.6080    1.3091   11.4759 H         1 <0>         0.4327
     44 H12        -2.1057    3.2305   13.0534 H         1 <0>         0.1350
     45 H13        -0.0365    3.9354   14.3407 H         1 <0>         0.1156
     46 H14         0.9036    4.0636   12.7592 H         1 <0>         0.1091
     47 H15        -0.7319    5.8157   11.9290 H         1 <0>         0.1302
     48 H16        -1.3160    4.5785   15.3849 H         1 <0>         0.1243
     49 H17        -2.7374    5.6913   17.0596 H         1 <0>         0.1239
     50 H18        -4.1318    7.6137   16.4090 H         1 <0>         0.1231
     51 H19        -4.1042    8.4238   14.0839 H         1 <0>         0.1245
     52 H20        -2.6765    7.3163   12.4111 H         1 <0>         0.1245
@<TRIPOS>BOND
     1    1    2 1
     2    1   33 1
     3    1   34 1
     4    1   35 1
     5    2    7 ar
     6    2    3 ar
     7    3    4 ar
     8    3   36 1
     9    4    5 ar
    10    4   37 1
    11    5    6 ar
    12    5   38 1
    13    6    7 ar
    14    6   32 1
    15    7    8 1
    16    8    9 am
    17    8   39 1
    18    9   10 2
    19    9   11 1
    20   11   16 ar
    21   11   12 ar
    22   12   13 ar
    23   12   40 1
    24   13   14 ar
    25   13   41 1
    26   14   19 1
    27   14   15 ar
    28   15   16 ar
    29   15   17 1
    30   16   42 1
    31   17   18 1
    32   18   19 2
    33   18   20 1
    34   20   21 am
    35   20   43 1
    36   21   22 2
    37   21   23 1
    38   23   25 1
    39   23   24 1
    40   23   44 1
    41   24   25 1
    42   24   45 1
    43   24   46 1
    44   25   26 1
    45   25   47 1
    46   26   31 ar
    47   26   27 ar
    48   27   28 ar
    49   27   48 1
    50   28   29 ar
    51   28   49 1
    52   29   30 ar
    53   29   50 1
    54   30   31 ar
    55   30   51 1
    56   31   52 1
@<TRIPOS>MOLECULE
CHEMBL68887__3
   52    56     0     0     0
SMALL
USER_CHARGES

@<TRIPOS>ATOM
      1 C1         -2.3214    0.0994    0.8118 C.3       1 <0>        -0.1148
      2 C2         -1.1016   -0.6762    0.3859 C.ar      1 <0>        -0.0626
      3 C3         -1.0990   -1.3545   -0.8177 C.ar      1 <0>        -0.1116
      4 C4          0.0194   -2.0665   -1.2097 C.ar      1 <0>        -0.0948
      5 C5          1.1395   -2.1026   -0.3991 C.ar      1 <0>        -0.1131
      6 C6          1.1439   -1.4261    0.8058 C.ar      1 <0>        -0.0212
      7 C7          0.0226   -0.7051    1.2000 C.ar      1 <0>         0.1388
      8 N1          0.0251   -0.0145    2.4167 N.am      1 <0>        -0.6792
      9 C8         -0.3549   -0.6410    3.5479 C.2       1 <0>         0.5730
     10 O1         -0.6122   -1.8294    3.5278 O.2       1 <0>        -0.5126
     11 C9         -0.4587    0.1146    4.8100 C.ar      1 <0>        -0.1299
     12 C10        -0.1701    1.4863    4.8440 C.ar      1 <0>        -0.0707
     13 C11        -0.2590    2.2000    5.9930 C.ar      1 <0>        -0.0732
     14 C12        -0.6487    1.5837    7.2083 C.ar      1 <0>         0.1409
     15 C13        -0.9349    0.1976    7.1485 C.ar      1 <0>        -0.1685
     16 C14        -0.8521   -0.5251    5.9901 C.ar      1 <0>         0.0136
     17 S1         -1.3695   -0.1718    8.8313 S.3       1 <0>         0.0235
     18 C15        -1.1520    1.4772    9.4855 C.2       1 <0>         0.3869
     19 N2         -0.7816    2.1540    8.4214 N.2       1 <0>        -0.5130
     20 N3         -1.3285    1.9268   10.7822 N.am      1 <0>        -0.6148
     21 C16        -1.1121    3.2231   11.0814 C.2       1 <0>         0.5288
     22 O2         -0.7627    3.9953   10.2141 O.2       1 <0>        -0.4350
     23 C17        -1.3044    3.7127   12.4936 C.3       1 <0>        -0.1850
     24 C18        -0.0565    4.1380   13.2699 C.3       1 <0>        -0.1438
     25 C19        -1.0430    5.1948   12.7691 C.3       1 <0>        -0.0714
     26 C20        -0.6129    6.0532   11.6075 C.ar      1 <0>        -0.0601
     27 C21         0.5476    5.7534   10.9189 C.ar      1 <0>        -0.0577
     28 C22         0.9421    6.5408    9.8534 C.ar      1 <0>        -0.1217
     29 C23         0.1759    7.6278    9.4763 C.ar      1 <0>        -0.1148
     30 C24        -0.9851    7.9271   10.1644 C.ar      1 <0>        -0.1283
     31 C25        -1.3818    7.1372   11.2271 C.ar      1 <0>        -0.1080
     32 Cl1         2.5499   -1.4716    1.8231 Cl        1 <0>        -0.0572
     33 H1         -2.2503    1.1215    0.4398 H         1 <0>         0.0772
     34 H2         -3.2142   -0.3745    0.4037 H         1 <0>         0.0737
     35 H3         -2.3822    0.1123    1.9000 H         1 <0>         0.0674
     36 H4         -1.9719   -1.3288   -1.4531 H         1 <0>         0.1347
     37 H5          0.0184   -2.5960   -2.1510 H         1 <0>         0.1368
     38 H6          2.0112   -2.6603   -0.7079 H         1 <0>         0.1381
     39 H7          0.3003    0.9151    2.4462 H         1 <0>         0.4104
     40 H8          0.1300    1.9853    3.9344 H         1 <0>         0.1361
     41 H9         -0.0288    3.2551    5.9822 H         1 <0>         0.1414
     42 H10        -1.0838   -1.5799    5.9876 H         1 <0>         0.1481
     43 H11        -1.6080    1.3091   11.4759 H         1 <0>         0.4299
     44 H12        -2.1057    3.2305   13.0534 H         1 <0>         0.1363
     45 H13        -0.0365    3.9354   14.3407 H         1 <0>         0.1166
     46 H14         0.9036    4.0636   12.7592 H         1 <0>         0.1064
     47 H15        -1.6720    5.6875   13.5105 H         1 <0>         0.1275
     48 H16         1.1463    4.9041   11.2135 H         1 <0>         0.1095
     49 H17         1.8492    6.3069    9.3159 H         1 <0>         0.1155
     50 H18         0.4845    8.2434    8.6443 H         1 <0>         0.1168
     51 H19        -1.5835    8.7765    9.8699 H         1 <0>         0.1181
     52 H20        -2.2908    7.3688   11.7624 H         1 <0>         0.1170
@<TRIPOS>BOND
     1    1    2 1
     2    1   33 1
     3    1   34 1
     4    1   35 1
     5    2    7 ar
     6    2    3 ar
     7    3    4 ar
     8    3   36 1
     9    4    5 ar
    10    4   37 1
    11    5    6 ar
    12    5   38 1
    13    6    7 ar
    14    6   32 1
    15    7    8 1
    16    8    9 am
    17    8   39 1
    18    9   10 2
    19    9   11 1
    20   11   16 ar
    21   11   12 ar
    22   12   13 ar
    23   12   40 1
    24   13   14 ar
    25   13   41 1
    26   14   19 1
    27   14   15 ar
    28   15   16 ar
    29   15   17 1
    30   16   42 1
    31   17   18 1
    32   18   19 2
    33   18   20 1
    34   20   21 am
    35   20   43 1
    36   21   22 2
    37   21   23 1
    38   23   25 1
    39   23   24 1
    40   23   44 1
    41   24   25 1
    42   24   45 1
    43   24   46 1
    44   25   26 1
    45   25   47 1
    46   26   31 ar
    47   26   27 ar
    48   27   28 ar
    49   27   48 1
    50   28   29 ar
    51   28   49 1
    52   29   30 ar
    53   29   50 1
    54   30   31 ar
    55   30   51 1
    56   31   52 1
@<TRIPOS>MOLECULE
CHEMBL97162
   48    51     0     0     0
SMALL
USER_CHARGES

@<TRIPOS>ATOM
      1 C1         -0.6138    1.5833   -0.6291 C.3       1 <0>         0.0434
      2 O1         -0.4723    0.1747   -0.4344 O.3       1 <0>        -0.2846
      3 C2         -1.6031   -0.5695   -0.4829 C.ar      1 <0>         0.5113
      4 N1         -2.7606    0.0316   -0.7093 N.ar      1 <0>        -0.5683
      5 C3         -3.8902   -0.6585   -0.7651 C.ar      1 <0>         0.1977
      6 C4         -3.8559   -2.0277   -0.5836 C.ar      1 <0>        -0.2699
      7 C5         -2.6167   -2.6372   -0.3457 C.ar      1 <0>         0.2944
      8 N2         -1.5204   -1.8767   -0.3084 N.ar      1 <0>        -0.5018
      9 C6         -2.5247   -4.0945   -0.1453 C.2       1 <0>         0.0028
     10 C7         -1.5439   -4.9411   -0.6331 C.2       1 <0>         0.1114
     11 N3         -1.8434   -6.1839   -0.2160 N.2       1 <0>        -0.4782
     12 C8         -2.9386   -6.1556    0.4922 C.2       1 <0>         0.2177
     13 N4         -3.3942   -4.8884    0.5701 N.pl3     1 <0>        -0.4361
     14 C9         -4.5942   -4.4398    1.2808 C.3       1 <0>         0.1237
     15 C10        -4.5151   -4.8806    2.7438 C.3       1 <0>        -0.1253
     16 C11        -5.7682   -4.4121    3.4861 C.3       1 <0>        -0.1105
     17 C12        -7.0075   -5.0284    2.8340 C.3       1 <0>         0.1021
     18 C13        -7.0866   -4.5876    1.3710 C.3       1 <0>        -0.1497
     19 C14        -5.8335   -5.0561    0.6287 C.3       1 <0>        -0.1266
     20 O2         -8.1780   -4.5908    3.5273 O.3       1 <0>        -0.5653
     21 C15        -0.3797   -4.5501   -1.4617 C.ar      1 <0>        -0.0113
     22 C16        -0.5001   -3.5222   -2.3966 C.ar      1 <0>        -0.0545
     23 C17         0.5868   -3.1618   -3.1659 C.ar      1 <0>        -0.1520
     24 C18         1.7967   -3.8192   -3.0108 C.ar      1 <0>         0.1044
     25 C19         1.9212   -4.8413   -2.0835 C.ar      1 <0>        -0.1541
     26 C20         0.8418   -5.2048   -1.3053 C.ar      1 <0>        -0.0577
     27 F1          2.8583   -3.4627   -3.7665 F         1 <0>        -0.1395
     28 H1          0.3649    2.0590   -0.5660 H         1 <0>         0.1067
     29 H2         -1.0472    1.7726   -1.6112 H         1 <0>         0.0649
     30 H3         -1.2671    1.9927    0.1414 H         1 <0>         0.0641
     31 H4         -4.8281   -0.1559   -0.9501 H         1 <0>         0.1772
     32 H5         -4.7620   -2.6139   -0.6238 H         1 <0>         0.1482
     33 H6         -3.4062   -7.0147    0.9502 H         1 <0>         0.2128
     34 H7         -4.6604   -3.3529    1.2319 H         1 <0>         0.1063
     35 H8         -4.4489   -5.9675    2.7927 H         1 <0>         0.0795
     36 H9         -3.6322   -4.4416    3.2083 H         1 <0>         0.0812
     37 H10        -5.7119   -4.7261    4.5283 H         1 <0>         0.0825
     38 H11        -5.8344   -3.3252    3.4371 H         1 <0>         0.0747
     39 H12        -6.9413   -6.1153    2.8829 H         1 <0>         0.0598
     40 H13        -7.9695   -5.0267    0.9065 H         1 <0>         0.0777
     41 H14        -7.1528   -3.5007    1.3221 H         1 <0>         0.0766
     42 H15        -5.8898   -4.7421   -0.4135 H         1 <0>         0.0781
     43 H16        -5.7673   -6.1430    0.6777 H         1 <0>         0.0793
     44 H17        -9.0033   -4.9434    3.1672 H         1 <0>         0.3815
     45 H18        -1.4428   -3.0096   -2.5185 H         1 <0>         0.1156
     46 H19         0.4944   -2.3663   -3.8904 H         1 <0>         0.1333
     47 H20         2.8661   -5.3512   -1.9668 H         1 <0>         0.1384
     48 H21         0.9412   -5.9981   -0.5792 H         1 <0>         0.1379
@<TRIPOS>BOND
     1    1    2 1
     2    1   28 1
     3    1   29 1
     4    1   30 1
     5    2    3 1
     6    3    8 ar
     7    3    4 ar
     8    4    5 ar
     9    5    6 ar
    10    5   31 1
    11    6    7 ar
    12    6   32 1
    13    7    8 ar
    14    7    9 1
    15    9   13 1
    16    9   10 2
    17   10   11 1
    18   10   21 1
    19   11   12 2
    20   12   13 1
    21   12   33 1
    22   13   14 1
    23   14   19 1
    24   14   15 1
    25   14   34 1
    26   15   16 1
    27   15   35 1
    28   15   36 1
    29   16   17 1
    30   16   37 1
    31   16   38 1
    32   17   18 1
    33   17   20 1
    34   17   39 1
    35   18   19 1
    36   18   40 1
    37   18   41 1
    38   19   42 1
    39   19   43 1
    40   20   44 1
    41   21   26 ar
    42   21   22 ar
    43   22   23 ar
    44   22   45 1
    45   23   24 ar
    46   23   46 1
    47   24   25 ar
    48   24   27 1
    49   25   26 ar
    50   25   47 1
    51   26   48 1
@<TRIPOS>MOLECULE
CHEMBL97162__1
   49    52     0     0     0
SMALL
USER_CHARGES

@<TRIPOS>ATOM
      1 C1         -0.7390    1.5184   -1.3056 C.3       1 <0>         0.0390
      2 O1         -0.5699    0.1177   -1.0792 O.3       1 <0>        -0.2792
      3 C2         -1.6916   -0.6099   -0.8612 C.ar      1 <0>         0.5231
      4 N1         -2.8670   -0.0008   -0.8738 N.ar      1 <0>        -0.5473
      5 C3         -3.9886   -0.6746   -0.6657 C.ar      1 <0>         0.2141
      6 C4         -3.9269   -2.0349   -0.4320 C.ar      1 <0>        -0.2622
      7 C5         -2.6693   -2.6531   -0.4244 C.ar      1 <0>         0.2585
      8 N2         -1.5836   -1.9092   -0.6470 N.ar      1 <0>        -0.4963
      9 C6         -2.5479   -4.1015   -0.1800 C.2       1 <0>         0.0897
     10 C7         -1.5570   -4.9448   -0.6529 C.2       1 <0>         0.1493
     11 N3         -1.8286   -6.1793   -0.1939 N.pl3     1 <0>        -0.4722
     12 C8         -2.9159   -6.1489    0.5262 C.cat     1 <0>         0.3024
     13 N4         -3.3942   -4.8884    0.5701 N.pl3     1 <0>        -0.3858
     14 C9         -4.5942   -4.4398    1.2808 C.3       1 <0>         0.1044
     15 C10        -4.5151   -4.8806    2.7438 C.3       1 <0>        -0.1290
     16 C11        -5.7682   -4.4121    3.4861 C.3       1 <0>        -0.1143
     17 C12        -7.0075   -5.0284    2.8340 C.3       1 <0>         0.1008
     18 C13        -7.0866   -4.5876    1.3710 C.3       1 <0>        -0.1536
     19 C14        -5.8335   -5.0561    0.6287 C.3       1 <0>        -0.1315
     20 O2         -8.1780   -4.5908    3.5273 O.3       1 <0>        -0.5604
     21 C15        -0.4098   -4.5587   -1.5071 C.ar      1 <0>        -0.0781
     22 C16        -0.6055   -3.7202   -2.6042 C.ar      1 <0>        -0.0224
     23 C17         0.4658   -3.3635   -3.3966 C.ar      1 <0>        -0.1477
     24 C18         1.7348   -3.8370   -3.1041 C.ar      1 <0>         0.1444
     25 C19         1.9343   -4.6708   -2.0154 C.ar      1 <0>        -0.1498
     26 C20         0.8703   -5.0281   -1.2134 C.ar      1 <0>        -0.0558
     27 F1          2.7810   -3.4850   -3.8831 F         1 <0>        -0.1230
     28 H1          0.2350    1.9808   -1.4658 H         1 <0>         0.1144
     29 H2         -1.3631    1.6714   -2.1861 H         1 <0>         0.0704
     30 H3         -1.2180    1.9716   -0.4377 H         1 <0>         0.0700
     31 H4         -4.9411   -0.1658   -0.6782 H         1 <0>         0.1888
     32 H5         -4.8259   -2.6078   -0.2591 H         1 <0>         0.1560
     33 H6         -3.3622   -7.0016    1.0162 H         1 <0>         0.2665
     34 H7         -4.6604   -3.3529    1.2319 H         1 <0>         0.1375
     35 H8         -4.4489   -5.9675    2.7927 H         1 <0>         0.0854
     36 H9         -3.6322   -4.4416    3.2083 H         1 <0>         0.0907
     37 H10        -5.7119   -4.7261    4.5283 H         1 <0>         0.0935
     38 H11        -5.8344   -3.3252    3.4371 H         1 <0>         0.0822
     39 H12        -6.9413   -6.1153    2.8829 H         1 <0>         0.0621
     40 H13        -7.9695   -5.0267    0.9065 H         1 <0>         0.0889
     41 H14        -7.1528   -3.5007    1.3221 H         1 <0>         0.0835
     42 H15        -5.8898   -4.7421   -0.4135 H         1 <0>         0.0876
     43 H16        -5.7673   -6.1430    0.6777 H         1 <0>         0.0864
     44 H17        -9.0033   -4.9434    3.1672 H         1 <0>         0.3875
     45 H18        -1.5942   -3.3509   -2.8332 H         1 <0>         0.1280
     46 H19         0.3152   -2.7145   -4.2466 H         1 <0>         0.1479
     47 H20         2.9250   -5.0379   -1.7918 H         1 <0>         0.1509
     48 H21         1.0275   -5.6738   -0.3621 H         1 <0>         0.1374
     49 H22        -1.2973   -6.9713   -0.3714 H         1 <0>         0.4674
@<TRIPOS>BOND
     1    1    2 1
     2    1   28 1
     3    1   29 1
     4    1   30 1
     5    2    3 1
     6    3    8 ar
     7    3    4 ar
     8    4    5 ar
     9    5    6 ar
    10    5   31 1
    11    6    7 ar
    12    6   32 1
    13    7    8 ar
    14    7    9 1
    15    9   13 1
    16    9   10 2
    17   10   11 1
    18   10   21 1
    19   11   12 2
    20   11   49 1
    21   12   13 1
    22   12   33 1
    23   13   14 1
    24   14   19 1
    25   14   15 1
    26   14   34 1
    27   15   16 1
    28   15   35 1
    29   15   36 1
    30   16   17 1
    31   16   37 1
    32   16   38 1
    33   17   18 1
    34   17   20 1
    35   17   39 1
    36   18   19 1
    37   18   40 1
    38   18   41 1
    39   19   42 1
    40   19   43 1
    41   20   44 1
    42   21   26 ar
    43   21   22 ar
    44   22   23 ar
    45   22   45 1
    46   23   24 ar
    47   23   46 1
    48   24   25 ar
    49   24   27 1
    50   25   26 ar
    51   25   47 1
    52   26   48 1
@<TRIPOS>MOLECULE
CHEMBL456683
   55    60     0     0     0
SMALL
USER_CHARGES

@<TRIPOS>ATOM
      1 C1          6.3557   -3.4597   -1.4121 C.3       1 <0>         0.1071
      2 N1          4.9229   -3.6609   -1.1820 N.pl3     1 <0>        -0.7027
      3 C2          4.3259   -3.1469   -0.0439 C.ar      1 <0>         0.5676
      4 N2          5.0652   -2.4708    0.8238 N.ar      1 <0>        -0.5722
      5 C3          4.5318   -1.9631    1.9239 C.ar      1 <0>         0.1951
      6 C4          3.1822   -2.1434    2.1671 C.ar      1 <0>        -0.2865
      7 C5          2.4274   -2.8607    1.2342 C.ar      1 <0>         0.2687
      8 N3          3.0304   -3.3385    0.1471 N.ar      1 <0>        -0.5429
      9 C6          0.9783   -3.0813    1.4489 C.ar      1 <0>        -0.1307
     10 C7          0.3426   -2.5713    2.5832 C.ar      1 <0>        -0.0131
     11 C8         -1.0137   -2.8046    2.7382 C.ar      1 <0>        -0.2120
     12 C9         -1.6929   -3.5282    1.7756 C.ar      1 <0>         0.1596
     13 N4         -1.0711   -4.0004    0.7124 N.ar      1 <0>        -0.5283
     14 C10         0.2210   -3.7998    0.5151 C.ar      1 <0>         0.3546
     15 O1          0.8176   -4.2978   -0.5952 O.3       1 <0>        -0.1995
     16 C11         0.0720   -5.0710   -1.4279 C.ar      1 <0>         0.0760
     17 C12         0.1054   -6.4420   -1.3125 C.ar      1 <0>        -0.0762
     18 C13        -0.6517   -7.2481   -2.1568 C.ar      1 <0>        -0.1499
     19 C14        -1.4546   -6.6936   -3.1298 C.ar      1 <0>         0.1701
     20 C15        -1.5106   -5.2913   -3.2730 C.ar      1 <0>        -0.0570
     21 C16        -0.7430   -4.4718   -2.4094 C.ar      1 <0>        -0.0209
     22 C17        -0.8038   -3.0755   -2.5506 C.ar      1 <0>        -0.0902
     23 C18        -1.6010   -2.5292   -3.5093 C.ar      1 <0>        -0.1112
     24 C19        -2.3601   -3.3354   -4.3553 C.ar      1 <0>        -0.1072
     25 C20        -2.3175   -4.6924   -4.2538 C.ar      1 <0>        -0.1129
     26 N5         -2.2089   -7.5160   -3.9707 N.pl3     1 <0>        -0.5959
     27 C21        -2.2460   -8.8788   -3.7517 C.2       1 <0>         0.3943
     28 N6         -1.7402   -9.5671   -2.7535 N.2       1 <0>        -0.5576
     29 C22        -1.8536  -10.9104   -2.6677 C.ar      1 <0>         0.1142
     30 C23        -1.3594  -11.7652   -1.6554 C.ar      1 <0>        -0.0778
     31 C24        -1.5625  -13.1189   -1.7212 C.ar      1 <0>        -0.0999
     32 C25        -2.2552  -13.6976   -2.7747 C.ar      1 <0>        -0.1095
     33 C26        -2.7530  -12.8913   -3.7821 C.ar      1 <0>        -0.0565
     34 C27        -2.5543  -11.5347   -3.7245 C.ar      1 <0>        -0.1562
     35 S1         -3.0010  -10.1544   -4.7502 S.3       1 <0>         0.0040
     36 H1          6.9212   -3.9055   -0.5938 H         1 <0>         0.0587
     37 H2          6.6426   -3.9319   -2.3516 H         1 <0>         0.0752
     38 H3          6.5693   -2.3920   -1.4620 H         1 <0>         0.0588
     39 H4          4.3927   -4.1542   -1.8272 H         1 <0>         0.4158
     40 H5          5.1439   -1.4142    2.6241 H         1 <0>         0.1688
     41 H6          2.7223   -1.7398    3.0570 H         1 <0>         0.1436
     42 H7          0.8952   -2.0092    3.3215 H         1 <0>         0.1494
     43 H8         -1.5362   -2.4248    3.6038 H         1 <0>         0.1455
     44 H9         -2.7506   -3.7102    1.8963 H         1 <0>         0.1636
     45 H10         0.7277   -6.8981   -0.5568 H         1 <0>         0.1313
     46 H11        -0.6094   -8.3219   -2.0485 H         1 <0>         0.1809
     47 H12        -0.2211   -2.4386   -1.9016 H         1 <0>         0.1231
     48 H13        -1.6462   -1.4554   -3.6155 H         1 <0>         0.1249
     49 H14        -2.9850   -2.8773   -5.1077 H         1 <0>         0.1267
     50 H15        -2.9108   -5.3050   -4.9165 H         1 <0>         0.1209
     51 H16        -2.7065   -7.1296   -4.7083 H         1 <0>         0.4305
     52 H17        -0.8155  -11.3466   -0.8215 H         1 <0>         0.1325
     53 H18        -1.1743  -13.7496   -0.9351 H         1 <0>         0.1341
     54 H19        -2.4039  -14.7668   -2.8081 H         1 <0>         0.1384
     55 H20        -3.2941  -13.3266   -4.6092 H         1 <0>         0.1329
@<TRIPOS>BOND
     1    1    2 1
     2    1   36 1
     3    1   37 1
     4    1   38 1
     5    2    3 1
     6    2   39 1
     7    3    8 ar
     8    3    4 ar
     9    4    5 ar
    10    5    6 ar
    11    5   40 1
    12    6    7 ar
    13    6   41 1
    14    7    8 ar
    15    7    9 1
    16    9   14 ar
    17    9   10 ar
    18   10   11 ar
    19   10   42 1
    20   11   12 ar
    21   11   43 1
    22   12   13 ar
    23   12   44 1
    24   13   14 ar
    25   14   15 1
    26   15   16 1
    27   16   21 ar
    28   16   17 ar
    29   17   18 ar
    30   17   45 1
    31   18   19 ar
    32   18   46 1
    33   19   20 ar
    34   19   26 1
    35   20   25 ar
    36   20   21 ar
    37   21   22 ar
    38   22   23 ar
    39   22   47 1
    40   23   24 ar
    41   23   48 1
    42   24   25 ar
    43   24   49 1
    44   25   50 1
    45   26   27 1
    46   26   51 1
    47   27   35 1
    48   27   28 2
    49   28   29 1
    50   29   34 ar
    51   29   30 ar
    52   30   31 ar
    53   30   52 1
    54   31   32 ar
    55   31   53 1
    56   32   33 ar
    57   32   54 1
    58   33   34 ar
    59   33   55 1
    60   34   35 1
@<TRIPOS>MOLECULE
CHEMBL379729
   69    73     0     0     0
SMALL
USER_CHARGES

@<TRIPOS>ATOM
      1 C1          4.1891   -0.9769    1.6388 C.3       1 <0>        -0.0463
      2 N1          3.0943   -1.8383    1.1724 N.4       1 <0>        -0.3949
      3 C2          1.8601   -1.0486    1.0700 C.3       1 <0>         0.0032
      4 C3          0.7237   -1.9410    0.5661 C.3       1 <0>        -0.0202
      5 N2          0.5334   -3.0606    1.4991 N.3       1 <0>        -0.2778
      6 C4          1.7687   -3.8459    1.6309 C.3       1 <0>        -0.0065
      7 C5          2.8965   -2.9378    2.1260 C.3       1 <0>         0.0035
      8 N3         -0.5100   -3.8512    1.1088 N.am      1 <0>        -0.3899
      9 C6         -1.5121   -4.1781    2.0160 C.ar      1 <0>         0.4472
     10 C7         -2.4439   -5.1647    1.7124 C.ar      1 <0>        -0.3035
     11 C8         -3.4274   -5.4549    2.6541 C.ar      1 <0>         0.4515
     12 N4         -3.4401   -4.7821    3.8034 N.ar      1 <0>        -0.5718
     13 C9         -2.5391   -3.8542    4.0531 C.ar      1 <0>         0.3615
     14 N5         -1.5898   -3.5550    3.1897 N.ar      1 <0>        -0.5633
     15 N6         -4.3801   -6.4299    2.3990 N.pl3     1 <0>        -0.6349
     16 C10        -5.3413   -6.7407    3.3692 C.ar      1 <0>         0.0858
     17 C11        -5.7027   -5.7925    4.3173 C.ar      1 <0>        -0.0751
     18 C12        -6.6503   -6.0988    5.2737 C.ar      1 <0>        -0.1803
     19 C13        -7.2423   -7.3550    5.2872 C.ar      1 <0>         0.2081
     20 C14        -6.8813   -8.3030    4.3388 C.ar      1 <0>        -0.1783
     21 C15        -5.9372   -7.9950    3.3795 C.ar      1 <0>        -0.0976
     22 N7         -8.2025   -7.6656    6.2569 N.pl3     1 <0>        -0.6336
     23 C16        -8.7359   -9.0311    6.3845 C.3       1 <0>         0.0865
     24 C17        -8.6323   -9.4553    7.8540 C.3       1 <0>         0.0456
     25 O1         -9.2408   -8.4565    8.6762 O.3       1 <0>        -0.3781
     26 C18        -8.6058   -7.1774    8.6100 C.3       1 <0>         0.0453
     27 C19        -8.7039   -6.6378    7.1830 C.3       1 <0>         0.0862
     28 C20        -0.5682   -4.3144   -0.1555 C.2       1 <0>         0.6848
     29 O2         -1.5616   -4.8979   -0.5440 O.2       1 <0>        -0.4910
     30 N8          0.4747   -4.1307   -0.9893 N.am      1 <0>        -0.6855
     31 C21         0.3535   -4.4596   -2.3453 C.ar      1 <0>         0.1489
     32 C22        -0.1394   -5.7036   -2.7187 C.ar      1 <0>        -0.0153
     33 C23        -0.2576   -6.0249   -4.0580 C.ar      1 <0>        -0.0869
     34 C24         0.1146   -5.1098   -5.0255 C.ar      1 <0>        -0.0857
     35 C25         0.6056   -3.8707   -4.6575 C.ar      1 <0>        -0.0874
     36 C26         0.7207   -3.5404   -3.3201 C.ar      1 <0>        -0.0381
     37 Cl1         1.3305   -1.9818   -2.8593 Cl        1 <0>        -0.0637
     38 Cl2        -0.6059   -6.8536   -1.5047 Cl        1 <0>        -0.0206
     39 H1          5.1054   -1.5625    1.7136 H         1 <0>         0.1284
     40 H2          4.3361   -0.1609    0.9312 H         1 <0>         0.1274
     41 H3          3.9381   -0.5683    2.6176 H         1 <0>         0.1290
     42 H4          1.6014   -0.6500    2.0509 H         1 <0>         0.1526
     43 H5          2.0123   -0.2254    0.3719 H         1 <0>         0.1458
     44 H6         -0.1958   -1.3589    0.5042 H         1 <0>         0.1410
     45 H7          0.9761   -2.3289   -0.4208 H         1 <0>         0.0797
     46 H8          1.6117   -4.6535    2.3459 H         1 <0>         0.1405
     47 H9          2.0383   -4.2652    0.6616 H         1 <0>         0.0619
     48 H10         3.8171   -3.5152    2.2109 H         1 <0>         0.1485
     49 H11         2.6325   -2.5295    3.1016 H         1 <0>         0.1526
     50 H12        -2.4059   -5.6917    0.7705 H         1 <0>         0.1802
     51 H13        -2.5768   -3.3266    4.9946 H         1 <0>         0.2038
     52 H14        -4.3807   -6.8967    1.5487 H         1 <0>         0.4203
     53 H15        -5.2422   -4.8157    4.3068 H         1 <0>         0.1585
     54 H16        -6.9308   -5.3617    6.0114 H         1 <0>         0.1253
     55 H17        -7.3415   -9.2800    4.3495 H         1 <0>         0.1260
     56 H18        -5.6591   -8.7310    2.6396 H         1 <0>         0.1224
     57 H19        -9.7795   -9.0484    6.0701 H         1 <0>         0.0716
     58 H20        -8.1537   -9.7122    5.7639 H         1 <0>         0.0915
     59 H21        -9.1462  -10.4060    7.9956 H         1 <0>         0.1059
     60 H22        -7.5831   -9.5632    8.1286 H         1 <0>         0.0553
     61 H23        -9.1006   -6.4894    9.2955 H         1 <0>         0.1060
     62 H24        -7.5564   -7.2771    8.8874 H         1 <0>         0.0551
     63 H25        -8.1004   -5.7348    7.0908 H         1 <0>         0.0929
     64 H26        -9.7442   -6.4101    6.9503 H         1 <0>         0.0713
     65 H27         1.3091   -3.7708   -0.6502 H         1 <0>         0.3977
     66 H28        -0.6407   -6.9918   -4.3490 H         1 <0>         0.1521
     67 H29         0.0219   -5.3637   -6.0711 H         1 <0>         0.1538
     68 H30         0.8957   -3.1586   -5.4159 H         1 <0>         0.1518
     69 H31         3.3271   -2.2168    0.2665 H         1 <0>         0.4195
@<TRIPOS>BOND
     1    1    2 1
     2    1   39 1
     3    1   40 1
     4    1   41 1
     5    2    7 1
     6    2    3 1
     7    2   69 1
     8    3    4 1
     9    3   42 1
    10    3   43 1
    11    4    5 1
    12    4   44 1
    13    4   45 1
    14    5    6 1
    15    5    8 1
    16    6    7 1
    17    6   46 1
    18    6   47 1
    19    7   48 1
    20    7   49 1
    21    8    9 1
    22    8   28 am
    23    9   14 ar
    24    9   10 ar
    25   10   11 ar
    26   10   50 1
    27   11   12 ar
    28   11   15 1
    29   12   13 ar
    30   13   14 ar
    31   13   51 1
    32   15   16 1
    33   15   52 1
    34   16   21 ar
    35   16   17 ar
    36   17   18 ar
    37   17   53 1
    38   18   19 ar
    39   18   54 1
    40   19   20 ar
    41   19   22 1
    42   20   21 ar
    43   20   55 1
    44   21   56 1
    45   22   27 1
    46   22   23 1
    47   23   24 1
    48   23   57 1
    49   23   58 1
    50   24   25 1
    51   24   59 1
    52   24   60 1
    53   25   26 1
    54   26   27 1
    55   26   61 1
    56   26   62 1
    57   27   63 1
    58   27   64 1
    59   28   29 2
    60   28   30 am
    61   30   31 1
    62   30   65 1
    63   31   36 ar
    64   31   32 ar
    65   32   33 ar
    66   32   38 1
    67   33   34 ar
    68   33   66 1
    69   34   35 ar
    70   34   67 1
    71   35   36 ar
    72   35   68 1
    73   36   37 1
@<TRIPOS>MOLECULE
CHEMBL379729__1
   68    72     0     0     0
SMALL
USER_CHARGES

@<TRIPOS>ATOM
      1 C1          4.1897   -0.9551    1.6917 C.3       1 <0>         0.0255
      2 N1          3.0982   -1.8122    1.2099 N.3       1 <0>        -0.5484
      3 C2          1.8528   -1.0461    1.0627 C.3       1 <0>         0.0626
      4 C3          0.7641   -1.9535    0.4849 C.3       1 <0>         0.0123
      5 N2          0.5679   -3.1065    1.3747 N.3       1 <0>        -0.2831
      6 C4          1.8133   -3.8725    1.5219 C.3       1 <0>         0.0291
      7 C5          2.9020   -2.9651    2.0997 C.3       1 <0>         0.0608
      8 N3         -0.4470   -3.9035    0.9267 N.am      1 <0>        -0.3930
      9 C6         -1.4701   -4.2784    1.7909 C.ar      1 <0>         0.4608
     10 C7         -2.3723   -5.2720    1.4269 C.ar      1 <0>        -0.3071
     11 C8         -3.3786   -5.6111    2.3273 C.ar      1 <0>         0.4445
     12 N4         -3.4403   -4.9761    3.4963 N.ar      1 <0>        -0.5804
     13 C9         -2.5660   -4.0400    3.8037 C.ar      1 <0>         0.3556
     14 N5         -1.5965   -3.6951    2.9807 N.ar      1 <0>        -0.5552
     15 N6         -4.3033   -6.5951    2.0114 N.pl3     1 <0>        -0.6420
     16 C10        -5.2878   -6.9552    2.9403 C.ar      1 <0>         0.0999
     17 C11        -5.6969   -6.0453    3.9063 C.ar      1 <0>        -0.0784
     18 C12        -6.6675   -6.4001    4.8220 C.ar      1 <0>        -0.1777
     19 C13        -7.2348   -7.6669    4.7768 C.ar      1 <0>         0.1997
     20 C14        -6.8260   -8.5767    3.8104 C.ar      1 <0>        -0.1775
     21 C15        -5.8589   -8.2200    2.8917 C.ar      1 <0>        -0.1044
     22 N7         -8.2182   -8.0268    5.7052 N.pl3     1 <0>        -0.6357
     23 C16        -8.7284   -9.4054    5.7722 C.3       1 <0>         0.0883
     24 C17        -8.6620   -9.8752    7.2299 C.3       1 <0>         0.0455
     25 O1         -9.3152   -8.9153    8.0640 O.3       1 <0>        -0.3800
     26 C18        -8.7037   -7.6230    8.0589 C.3       1 <0>         0.0452
     27 C19        -8.7681   -7.0392    6.6474 C.3       1 <0>         0.0875
     28 C20        -0.4569   -4.3265   -0.3530 C.2       1 <0>         0.6881
     29 O2         -1.4260   -4.9157   -0.7909 O.2       1 <0>        -0.5174
     30 N8          0.6075   -4.0963   -1.1470 N.am      1 <0>        -0.6848
     31 C21         0.5347   -4.3826   -2.5161 C.ar      1 <0>         0.1625
     32 C22         0.0779   -5.6226   -2.9448 C.ar      1 <0>        -0.0179
     33 C23         0.0074   -5.9017   -4.2968 C.ar      1 <0>        -0.0936
     34 C24         0.3914   -4.9486   -5.2221 C.ar      1 <0>        -0.0966
     35 C25         0.8466   -3.7134   -4.7990 C.ar      1 <0>        -0.0921
     36 C26         0.9138   -3.4252   -3.4487 C.ar      1 <0>        -0.0415
     37 Cl1         1.4786   -1.8715   -2.9188 Cl        1 <0>        -0.0440
     38 Cl2        -0.4034   -6.8203   -1.7839 Cl        1 <0>        -0.0267
     39 H1          5.1147   -1.5304    1.7275 H         1 <0>         0.0725
     40 H2          4.3135   -0.1096    1.0150 H         1 <0>         0.0715
     41 H3          3.9505   -0.5892    2.6902 H         1 <0>         0.0318
     42 H4          1.5370   -0.6746    2.0376 H         1 <0>         0.0553
     43 H5          2.0204   -0.2053    0.3896 H         1 <0>         0.0896
     44 H6         -0.1684   -1.3953    0.4019 H         1 <0>         0.0946
     45 H7          1.0680   -2.3032   -0.5017 H         1 <0>         0.0725
     46 H8          1.6457   -4.7134    2.1950 H         1 <0>         0.0958
     47 H9          2.1291   -4.2440    0.5470 H         1 <0>         0.0474
     48 H10         3.8345   -3.5234    2.1827 H         1 <0>         0.0921
     49 H11         2.5981   -2.6154    3.0863 H         1 <0>         0.0569
     50 H12        -2.2946   -5.7675    0.4704 H         1 <0>         0.1813
     51 H13        -2.6434   -3.5439    4.7599 H         1 <0>         0.2004
     52 H14        -4.2683   -7.0341    1.1471 H         1 <0>         0.4189
     53 H15        -5.2557   -5.0601    3.9415 H         1 <0>         0.1609
     54 H16        -6.9851   -5.6927    5.5737 H         1 <0>         0.1235
     55 H17        -7.2670   -9.5619    3.7754 H         1 <0>         0.1233
     56 H18        -5.5437   -8.9263    2.1378 H         1 <0>         0.1214
     57 H19        -9.7612   -9.4319    5.4247 H         1 <0>         0.0689
     58 H20        -8.1140  -10.0550    5.1488 H         1 <0>         0.0911
     59 H21        -9.1613  -10.8395    7.3248 H         1 <0>         0.1040
     60 H22        -7.6198   -9.9725    7.5340 H         1 <0>         0.0553
     61 H23        -9.2328   -6.9671    8.7501 H         1 <0>         0.1047
     62 H24        -7.6616   -7.7122    8.3659 H         1 <0>         0.0553
     63 H25        -8.1800   -6.1226    6.6033 H         1 <0>         0.0932
     64 H26        -9.8050   -6.8235    6.3894 H         1 <0>         0.0689
     65 H27         1.4239   -3.7324   -0.7704 H         1 <0>         0.4181
     66 H28        -0.3476   -6.8654   -4.6308 H         1 <0>         0.1460
     67 H29         0.3360   -5.1697   -6.2778 H         1 <0>         0.1474
     68 H30         1.1460   -2.9715   -5.5245 H         1 <0>         0.1472
@<TRIPOS>BOND
     1    1    2 1
     2    1   39 1
     3    1   40 1
     4    1   41 1
     5    2    7 1
     6    2    3 1
     7    3    4 1
     8    3   42 1
     9    3   43 1
    10    4    5 1
    11    4   44 1
    12    4   45 1
    13    5    6 1
    14    5    8 1
    15    6    7 1
    16    6   46 1
    17    6   47 1
    18    7   48 1
    19    7   49 1
    20    8    9 1
    21    8   28 am
    22    9   14 ar
    23    9   10 ar
    24   10   11 ar
    25   10   50 1
    26   11   12 ar
    27   11   15 1
    28   12   13 ar
    29   13   14 ar
    30   13   51 1
    31   15   16 1
    32   15   52 1
    33   16   21 ar
    34   16   17 ar
    35   17   18 ar
    36   17   53 1
    37   18   19 ar
    38   18   54 1
    39   19   20 ar
    40   19   22 1
    41   20   21 ar
    42   20   55 1
    43   21   56 1
    44   22   27 1
    45   22   23 1
    46   23   24 1
    47   23   57 1
    48   23   58 1
    49   24   25 1
    50   24   59 1
    51   24   60 1
    52   25   26 1
    53   26   27 1
    54   26   61 1
    55   26   62 1
    56   27   63 1
    57   27   64 1
    58   28   29 2
    59   28   30 am
    60   30   31 1
    61   30   65 1
    62   31   36 ar
    63   31   32 ar
    64   32   33 ar
    65   32   38 1
    66   33   34 ar
    67   33   66 1
    68   34   35 ar
    69   34   67 1
    70   35   36 ar
    71   35   68 1
    72   36   37 1
@<TRIPOS>MOLECULE
CHEMBL68261
   46    49     0     0     0
SMALL
USER_CHARGES

@<TRIPOS>ATOM
      1 C1         -2.3214    0.0994    0.8118 C.3       1 <0>        -0.1147
      2 C2         -1.1016   -0.6762    0.3859 C.ar      1 <0>        -0.0626
      3 C3         -1.0990   -1.3545   -0.8177 C.ar      1 <0>        -0.1115
      4 C4          0.0194   -2.0665   -1.2097 C.ar      1 <0>        -0.0946
      5 C5          1.1395   -2.1026   -0.3991 C.ar      1 <0>        -0.1130
      6 C6          1.1439   -1.4261    0.8058 C.ar      1 <0>        -0.0212
      7 C7          0.0226   -0.7051    1.2000 C.ar      1 <0>         0.1386
      8 N1          0.0251   -0.0145    2.4167 N.am      1 <0>        -0.6790
      9 C8         -0.3549   -0.6410    3.5479 C.2       1 <0>         0.5727
     10 O1         -0.6122   -1.8294    3.5278 O.2       1 <0>        -0.5121
     11 C9         -0.4587    0.1146    4.8100 C.ar      1 <0>        -0.1284
     12 C10        -0.1701    1.4863    4.8440 C.ar      1 <0>        -0.0707
     13 C11        -0.2590    2.2000    5.9930 C.ar      1 <0>        -0.0726
     14 C12        -0.6487    1.5837    7.2083 C.ar      1 <0>         0.1387
     15 C13        -0.9349    0.1976    7.1485 C.ar      1 <0>        -0.1680
     16 C14        -0.8521   -0.5251    5.9901 C.ar      1 <0>         0.0134
     17 S1         -1.3695   -0.1718    8.8313 S.3       1 <0>         0.0304
     18 C15        -1.1520    1.4772    9.4855 C.2       1 <0>         0.3831
     19 N2         -0.7816    2.1540    8.4214 N.2       1 <0>        -0.5147
     20 N3         -1.3285    1.9268   10.7822 N.am      1 <0>        -0.6127
     21 C16        -1.1121    3.2231   11.0814 C.2       1 <0>         0.5392
     22 O2         -0.7627    3.9953   10.2141 O.2       1 <0>        -0.4601
     23 C17        -1.3044    3.7127   12.4936 C.3       1 <0>        -0.1881
     24 C18        -2.4763    4.6597   12.7595 C.3       1 <0>        -0.1418
     25 C19        -1.0430    5.1948   12.7691 C.3       1 <0>        -0.1095
     26 C20        -0.6063    6.0663   11.5898 C.3       1 <0>         0.1082
     27 O3         -0.2988    7.3812   12.0574 O.3       1 <0>        -0.5797
     28 Cl1         2.5499   -1.4716    1.8231 Cl        1 <0>        -0.0571
     29 H1         -2.2503    1.1215    0.4398 H         1 <0>         0.0772
     30 H2         -3.2142   -0.3745    0.4037 H         1 <0>         0.0738
     31 H3         -2.3822    0.1123    1.9000 H         1 <0>         0.0673
     32 H4         -1.9719   -1.3288   -1.4531 H         1 <0>         0.1348
     33 H5          0.0184   -2.5960   -2.1510 H         1 <0>         0.1369
     34 H6          2.0112   -2.6603   -0.7079 H         1 <0>         0.1382
     35 H7          0.3003    0.9151    2.4462 H         1 <0>         0.4104
     36 H8          0.1300    1.9853    3.9344 H         1 <0>         0.1368
     37 H9         -0.0288    3.2551    5.9822 H         1 <0>         0.1420
     38 H10        -1.0838   -1.5799    5.9876 H         1 <0>         0.1488
     39 H11        -1.6080    1.3091   11.4759 H         1 <0>         0.4328
     40 H12        -1.0438    3.0015   13.2773 H         1 <0>         0.1383
     41 H13        -3.1082    4.9286   11.9130 H         1 <0>         0.1047
     42 H14        -2.9870    4.5716   13.7184 H         1 <0>         0.1153
     43 H15        -0.6107    5.4587   13.7343 H         1 <0>         0.1278
     44 H16         0.2773    5.6306   11.1236 H         1 <0>         0.0643
     45 H17        -1.4135    6.1200   10.8593 H         1 <0>         0.0544
     46 H18        -0.0140    7.9894   11.3617 H         1 <0>         0.3840
@<TRIPOS>BOND
     1    1    2 1
     2    1   29 1
     3    1   30 1
     4    1   31 1
     5    2    7 ar
     6    2    3 ar
     7    3    4 ar
     8    3   32 1
     9    4    5 ar
    10    4   33 1
    11    5    6 ar
    12    5   34 1
    13    6    7 ar
    14    6   28 1
    15    7    8 1
    16    8    9 am
    17    8   35 1
    18    9   10 2
    19    9   11 1
    20   11   16 ar
    21   11   12 ar
    22   12   13 ar
    23   12   36 1
    24   13   14 ar
    25   13   37 1
    26   14   19 1
    27   14   15 ar
    28   15   16 ar
    29   15   17 1
    30   16   38 1
    31   17   18 1
    32   18   19 2
    33   18   20 1
    34   20   21 am
    35   20   39 1
    36   21   22 2
    37   21   23 1
    38   23   25 1
    39   23   24 1
    40   23   40 1
    41   24   25 1
    42   24   41 1
    43   24   42 1
    44   25   26 1
    45   25   43 1
    46   26   27 1
    47   26   44 1
    48   26   45 1
    49   27   46 1
@<TRIPOS>MOLECULE
CHEMBL68261__1
   46    49     0     0     0
SMALL
USER_CHARGES

@<TRIPOS>ATOM
      1 C1         -2.3214    0.0994    0.8118 C.3       1 <0>        -0.1148
      2 C2         -1.1016   -0.6762    0.3859 C.ar      1 <0>        -0.0626
      3 C3         -1.0990   -1.3545   -0.8177 C.ar      1 <0>        -0.1115
      4 C4          0.0194   -2.0665   -1.2097 C.ar      1 <0>        -0.0947
      5 C5          1.1395   -2.1026   -0.3991 C.ar      1 <0>        -0.1131
      6 C6          1.1439   -1.4261    0.8058 C.ar      1 <0>        -0.0212
      7 C7          0.0226   -0.7051    1.2000 C.ar      1 <0>         0.1387
      8 N1          0.0251   -0.0145    2.4167 N.am      1 <0>        -0.6791
      9 C8         -0.3549   -0.6410    3.5479 C.2       1 <0>         0.5729
     10 O1         -0.6122   -1.8294    3.5278 O.2       1 <0>        -0.5124
     11 C9         -0.4587    0.1146    4.8100 C.ar      1 <0>        -0.1287
     12 C10        -0.1701    1.4863    4.8440 C.ar      1 <0>        -0.0706
     13 C11        -0.2590    2.2000    5.9930 C.ar      1 <0>        -0.0724
     14 C12        -0.6487    1.5837    7.2083 C.ar      1 <0>         0.1391
     15 C13        -0.9349    0.1976    7.1485 C.ar      1 <0>        -0.1680
     16 C14        -0.8521   -0.5251    5.9901 C.ar      1 <0>         0.0134
     17 S1         -1.3695   -0.1718    8.8313 S.3       1 <0>         0.0296
     18 C15        -1.1520    1.4772    9.4855 C.2       1 <0>         0.3835
     19 N2         -0.7816    2.1540    8.4214 N.2       1 <0>        -0.5149
     20 N3         -1.3285    1.9268   10.7822 N.am      1 <0>        -0.6131
     21 C16        -1.1121    3.2231   11.0814 C.2       1 <0>         0.5392
     22 O2         -0.7627    3.9953   10.2141 O.2       1 <0>        -0.4573
     23 C17        -1.3044    3.7127   12.4936 C.3       1 <0>        -0.1858
     24 C18        -2.4763    4.6597   12.7595 C.3       1 <0>        -0.1393
     25 C19        -1.0430    5.1948   12.7691 C.3       1 <0>        -0.1138
     26 C20        -0.4362    5.5652   14.1239 C.3       1 <0>         0.1053
     27 O3         -0.1580    6.9665   14.1542 O.3       1 <0>        -0.5689
     28 Cl1         2.5499   -1.4716    1.8231 Cl        1 <0>        -0.0571
     29 H1         -2.2503    1.1215    0.4398 H         1 <0>         0.0772
     30 H2         -3.2142   -0.3745    0.4037 H         1 <0>         0.0737
     31 H3         -2.3822    0.1123    1.9000 H         1 <0>         0.0674
     32 H4         -1.9719   -1.3288   -1.4531 H         1 <0>         0.1347
     33 H5          0.0184   -2.5960   -2.1510 H         1 <0>         0.1368
     34 H6          2.0112   -2.6603   -0.7079 H         1 <0>         0.1382
     35 H7          0.3003    0.9151    2.4462 H         1 <0>         0.4105
     36 H8          0.1300    1.9853    3.9344 H         1 <0>         0.1369
     37 H9         -0.0288    3.2551    5.9822 H         1 <0>         0.1425
     38 H10        -1.0838   -1.5799    5.9876 H         1 <0>         0.1487
     39 H11        -1.6080    1.3091   11.4759 H         1 <0>         0.4326
     40 H12        -1.0438    3.0015   13.2773 H         1 <0>         0.1352
     41 H13        -3.1082    4.9286   11.9130 H         1 <0>         0.1064
     42 H14        -2.9870    4.5716   13.7184 H         1 <0>         0.1135
     43 H15        -0.7319    5.8157   11.9290 H         1 <0>         0.1298
     44 H16        -1.1411    5.3175   14.9176 H         1 <0>         0.0533
     45 H17         0.4887    5.0079   14.2724 H         1 <0>         0.0546
     46 H18         0.2293    7.2728   14.9856 H         1 <0>         0.3853
@<TRIPOS>BOND
     1    1    2 1
     2    1   29 1
     3    1   30 1
     4    1   31 1
     5    2    7 ar
     6    2    3 ar
     7    3    4 ar
     8    3   32 1
     9    4    5 ar
    10    4   33 1
    11    5    6 ar
    12    5   34 1
    13    6    7 ar
    14    6   28 1
    15    7    8 1
    16    8    9 am
    17    8   35 1
    18    9   10 2
    19    9   11 1
    20   11   16 ar
    21   11   12 ar
    22   12   13 ar
    23   12   36 1
    24   13   14 ar
    25   13   37 1
    26   14   19 1
    27   14   15 ar
    28   15   16 ar
    29   15   17 1
    30   16   38 1
    31   17   18 1
    32   18   19 2
    33   18   20 1
    34   20   21 am
    35   20   39 1
    36   21   22 2
    37   21   23 1
    38   23   25 1
    39   23   24 1
    40   23   40 1
    41   24   25 1
    42   24   41 1
    43   24   42 1
    44   25   26 1
    45   25   43 1
    46   26   27 1
    47   26   44 1
    48   26   45 1
    49   27   46 1
@<TRIPOS>MOLECULE
CHEMBL68261__2
   46    49     0     0     0
SMALL
USER_CHARGES

@<TRIPOS>ATOM
      1 C1         -2.3214    0.0994    0.8118 C.3       1 <0>        -0.1148
      2 C2         -1.1016   -0.6762    0.3859 C.ar      1 <0>        -0.0626
      3 C3         -1.0990   -1.3545   -0.8177 C.ar      1 <0>        -0.1115
      4 C4          0.0194   -2.0665   -1.2097 C.ar      1 <0>        -0.0947
      5 C5          1.1395   -2.1026   -0.3991 C.ar      1 <0>        -0.1131
      6 C6          1.1439   -1.4261    0.8058 C.ar      1 <0>        -0.0212
      7 C7          0.0226   -0.7051    1.2000 C.ar      1 <0>         0.1387
      8 N1          0.0251   -0.0145    2.4167 N.am      1 <0>        -0.6791
      9 C8         -0.3549   -0.6410    3.5479 C.2       1 <0>         0.5729
     10 O1         -0.6122   -1.8294    3.5278 O.2       1 <0>        -0.5124
     11 C9         -0.4587    0.1146    4.8100 C.ar      1 <0>        -0.1287
     12 C10        -0.1701    1.4863    4.8440 C.ar      1 <0>        -0.0706
     13 C11        -0.2590    2.2000    5.9930 C.ar      1 <0>        -0.0724
     14 C12        -0.6487    1.5837    7.2083 C.ar      1 <0>         0.1391
     15 C13        -0.9349    0.1976    7.1485 C.ar      1 <0>        -0.1680
     16 C14        -0.8521   -0.5251    5.9901 C.ar      1 <0>         0.0134
     17 S1         -1.3695   -0.1718    8.8313 S.3       1 <0>         0.0296
     18 C15        -1.1520    1.4772    9.4855 C.2       1 <0>         0.3835
     19 N2         -0.7816    2.1540    8.4214 N.2       1 <0>        -0.5149
     20 N3         -1.3285    1.9268   10.7822 N.am      1 <0>        -0.6131
     21 C16        -1.1121    3.2231   11.0814 C.2       1 <0>         0.5392
     22 O2         -0.7627    3.9953   10.2141 O.2       1 <0>        -0.4573
     23 C17        -1.3044    3.7127   12.4936 C.3       1 <0>        -0.1858
     24 C18        -0.0565    4.1380   13.2699 C.3       1 <0>        -0.1394
     25 C19        -1.0430    5.1948   12.7691 C.3       1 <0>        -0.1137
     26 C20        -1.9260    5.8864   13.8097 C.3       1 <0>         0.1054
     27 O3         -1.6156    7.2808   13.8468 O.3       1 <0>        -0.5689
     28 Cl1         2.5499   -1.4716    1.8231 Cl        1 <0>        -0.0571
     29 H1         -2.2503    1.1215    0.4398 H         1 <0>         0.0772
     30 H2         -3.2142   -0.3745    0.4037 H         1 <0>         0.0737
     31 H3         -2.3822    0.1123    1.9000 H         1 <0>         0.0674
     32 H4         -1.9719   -1.3288   -1.4531 H         1 <0>         0.1347
     33 H5          0.0184   -2.5960   -2.1510 H         1 <0>         0.1368
     34 H6          2.0112   -2.6603   -0.7079 H         1 <0>         0.1382
     35 H7          0.3003    0.9151    2.4462 H         1 <0>         0.4105
     36 H8          0.1300    1.9853    3.9344 H         1 <0>         0.1369
     37 H9         -0.0288    3.2551    5.9822 H         1 <0>         0.1425
     38 H10        -1.0838   -1.5799    5.9876 H         1 <0>         0.1487
     39 H11        -1.6080    1.3091   11.4759 H         1 <0>         0.4326
     40 H12        -2.1057    3.2305   13.0534 H         1 <0>         0.1353
     41 H13        -0.0365    3.9354   14.3407 H         1 <0>         0.1135
     42 H14         0.9036    4.0636   12.7592 H         1 <0>         0.1064
     43 H15        -0.7319    5.8157   11.9290 H         1 <0>         0.1298
     44 H16        -2.9743    5.7545   13.5420 H         1 <0>         0.0546
     45 H17        -1.7435    5.4474   14.7906 H         1 <0>         0.0533
     46 H18        -2.1387    7.7833   14.4862 H         1 <0>         0.3852
@<TRIPOS>BOND
     1    1    2 1
     2    1   29 1
     3    1   30 1
     4    1   31 1
     5    2    7 ar
     6    2    3 ar
     7    3    4 ar
     8    3   32 1
     9    4    5 ar
    10    4   33 1
    11    5    6 ar
    12    5   34 1
    13    6    7 ar
    14    6   28 1
    15    7    8 1
    16    8    9 am
    17    8   35 1
    18    9   10 2
    19    9   11 1
    20   11   16 ar
    21   11   12 ar
    22   12   13 ar
    23   12   36 1
    24   13   14 ar
    25   13   37 1
    26   14   19 1
    27   14   15 ar
    28   15   16 ar
    29   15   17 1
    30   16   38 1
    31   17   18 1
    32   18   19 2
    33   18   20 1
    34   20   21 am
    35   20   39 1
    36   21   22 2
    37   21   23 1
    38   23   25 1
    39   23   24 1
    40   23   40 1
    41   24   25 1
    42   24   41 1
    43   24   42 1
    44   25   26 1
    45   25   43 1
    46   26   27 1
    47   26   44 1
    48   26   45 1
    49   27   46 1
@<TRIPOS>MOLECULE
CHEMBL68261__3
   46    49     0     0     0
SMALL
USER_CHARGES

@<TRIPOS>ATOM
      1 C1         -2.3214    0.0994    0.8118 C.3       1 <0>        -0.1147
      2 C2         -1.1016   -0.6762    0.3859 C.ar      1 <0>        -0.0626
      3 C3         -1.0990   -1.3545   -0.8177 C.ar      1 <0>        -0.1115
      4 C4          0.0194   -2.0665   -1.2097 C.ar      1 <0>        -0.0946
      5 C5          1.1395   -2.1026   -0.3991 C.ar      1 <0>        -0.1130
      6 C6          1.1439   -1.4261    0.8058 C.ar      1 <0>        -0.0212
      7 C7          0.0226   -0.7051    1.2000 C.ar      1 <0>         0.1386
      8 N1          0.0251   -0.0145    2.4167 N.am      1 <0>        -0.6790
      9 C8         -0.3549   -0.6410    3.5479 C.2       1 <0>         0.5727
     10 O1         -0.6122   -1.8294    3.5278 O.2       1 <0>        -0.5121
     11 C9         -0.4587    0.1146    4.8100 C.ar      1 <0>        -0.1284
     12 C10        -0.1701    1.4863    4.8440 C.ar      1 <0>        -0.0707
     13 C11        -0.2590    2.2000    5.9930 C.ar      1 <0>        -0.0726
     14 C12        -0.6487    1.5837    7.2083 C.ar      1 <0>         0.1387
     15 C13        -0.9349    0.1976    7.1485 C.ar      1 <0>        -0.1680
     16 C14        -0.8521   -0.5251    5.9901 C.ar      1 <0>         0.0134
     17 S1         -1.3695   -0.1718    8.8313 S.3       1 <0>         0.0304
     18 C15        -1.1520    1.4772    9.4855 C.2       1 <0>         0.3831
     19 N2         -0.7816    2.1540    8.4214 N.2       1 <0>        -0.5147
     20 N3         -1.3285    1.9268   10.7822 N.am      1 <0>        -0.6127
     21 C16        -1.1121    3.2231   11.0814 C.2       1 <0>         0.5392
     22 O2         -0.7627    3.9953   10.2141 O.2       1 <0>        -0.4601
     23 C17        -1.3044    3.7127   12.4936 C.3       1 <0>        -0.1881
     24 C18        -0.0565    4.1380   13.2699 C.3       1 <0>        -0.1419
     25 C19        -1.0430    5.1948   12.7691 C.3       1 <0>        -0.1095
     26 C20        -0.6063    6.0663   11.5898 C.3       1 <0>         0.1081
     27 O3         -0.5236    7.4297   12.0100 O.3       1 <0>        -0.5797
     28 Cl1         2.5499   -1.4716    1.8231 Cl        1 <0>        -0.0571
     29 H1         -2.2503    1.1215    0.4398 H         1 <0>         0.0772
     30 H2         -3.2142   -0.3745    0.4037 H         1 <0>         0.0738
     31 H3         -2.3822    0.1123    1.9000 H         1 <0>         0.0673
     32 H4         -1.9719   -1.3288   -1.4531 H         1 <0>         0.1348
     33 H5          0.0184   -2.5960   -2.1510 H         1 <0>         0.1369
     34 H6          2.0112   -2.6603   -0.7079 H         1 <0>         0.1382
     35 H7          0.3003    0.9151    2.4462 H         1 <0>         0.4104
     36 H8          0.1300    1.9853    3.9344 H         1 <0>         0.1368
     37 H9         -0.0288    3.2551    5.9822 H         1 <0>         0.1420
     38 H10        -1.0838   -1.5799    5.9876 H         1 <0>         0.1487
     39 H11        -1.6080    1.3091   11.4759 H         1 <0>         0.4328
     40 H12        -2.1057    3.2305   13.0534 H         1 <0>         0.1384
     41 H13        -0.0365    3.9354   14.3407 H         1 <0>         0.1153
     42 H14         0.9036    4.0636   12.7592 H         1 <0>         0.1047
     43 H15        -1.6720    5.6875   13.5105 H         1 <0>         0.1278
     44 H16         0.3699    5.7355   11.2354 H         1 <0>         0.0545
     45 H17        -1.3346    5.9781   10.7836 H         1 <0>         0.0643
     46 H18        -0.2515    8.0407   11.3116 H         1 <0>         0.3840
@<TRIPOS>BOND
     1    1    2 1
     2    1   29 1
     3    1   30 1
     4    1   31 1
     5    2    7 ar
     6    2    3 ar
     7    3    4 ar
     8    3   32 1
     9    4    5 ar
    10    4   33 1
    11    5    6 ar
    12    5   34 1
    13    6    7 ar
    14    6   28 1
    15    7    8 1
    16    8    9 am
    17    8   35 1
    18    9   10 2
    19    9   11 1
    20   11   16 ar
    21   11   12 ar
    22   12   13 ar
    23   12   36 1
    24   13   14 ar
    25   13   37 1
    26   14   19 1
    27   14   15 ar
    28   15   16 ar
    29   15   17 1
    30   16   38 1
    31   17   18 1
    32   18   19 2
    33   18   20 1
    34   20   21 am
    35   20   39 1
    36   21   22 2
    37   21   23 1
    38   23   25 1
    39   23   24 1
    40   23   40 1
    41   24   25 1
    42   24   41 1
    43   24   42 1
    44   25   26 1
    45   25   43 1
    46   26   27 1
    47   26   44 1
    48   26   45 1
    49   27   46 1
@<TRIPOS>MOLECULE
CHEMBL185851
   54    57     0     0     0
SMALL
USER_CHARGES

@<TRIPOS>ATOM
      1 C1          3.4655    6.6190    1.8974 C.3       1 <0>        -0.1169
      2 C2          2.7632    7.9487    1.9951 C.ar      1 <0>        -0.0835
      3 C3          3.0978    8.9726    1.1299 C.ar      1 <0>        -0.1041
      4 C4          2.4544   10.1931    1.2184 C.ar      1 <0>        -0.1032
      5 C5          1.4738   10.3939    2.1728 C.ar      1 <0>        -0.1060
      6 C6          1.1344    9.3744    3.0416 C.ar      1 <0>        -0.0229
      7 C7          1.7754    8.1442    2.9508 C.ar      1 <0>         0.1409
      8 N1          1.4303    7.1076    3.8245 N.am      1 <0>        -0.6702
      9 C8          1.4165    7.3239    5.1548 C.2       1 <0>         0.6102
     10 O1          1.6053    8.4448    5.5913 O.2       1 <0>        -0.4912
     11 C9          1.1750    6.2125    6.0737 C.2       1 <0>        -0.3005
     12 C10         1.1122    6.2063    7.4604 C.2       1 <0>         0.1569
     13 N2          0.8776    5.0495    8.0266 N.2       1 <0>        -0.5343
     14 C11         0.7108    3.9518    7.3104 C.2       1 <0>         0.3057
     15 S1          0.8710    4.4881    5.7232 S.3       1 <0>         0.1568
     16 N3          0.4597    2.6702    7.7575 N.pl3     1 <0>        -0.5933
     17 C12         0.2471    2.4352    9.1128 C.ar      1 <0>         0.4172
     18 C13        -0.1128    1.1634    9.5420 C.ar      1 <0>        -0.2431
     19 C14        -0.3219    0.9385   10.8929 C.ar      1 <0>         0.0001
     20 C15        -0.1638    1.9964   11.7732 C.ar      1 <0>        -0.2599
     21 C16         0.1977    3.2439   11.2782 C.ar      1 <0>         0.4254
     22 N4          0.3952    3.4249    9.9808 N.ar      1 <0>        -0.5251
     23 N5          0.3586    4.3112   12.1540 N.pl3     1 <0>        -0.6251
     24 C17         0.5034    5.6863   11.6519 C.3       1 <0>         0.0963
     25 C18         1.7325    6.3181   12.3136 C.3       1 <0>        -0.0208
     26 N6          1.6084    6.2157   13.7732 N.4       1 <0>        -0.5044
     27 C19         1.6231    4.8044   14.1785 C.3       1 <0>         0.0121
     28 H1          2.5246    4.3258   13.7960 H         1 <0>         0.1413
     29 C20         0.3829    4.0983   13.6094 C.3       1 <0>         0.1089
     30 C21         1.6052    4.7120   15.7056 C.3       1 <0>        -0.1819
     31 Cl1        -0.0961    9.6270    4.2399 Cl        1 <0>        -0.0466
     32 H2          2.9246    5.9723    1.2065 H         1 <0>         0.0769
     33 H3          4.4816    6.7706    1.5332 H         1 <0>         0.0768
     34 H4          3.4983    6.1522    2.8818 H         1 <0>         0.0656
     35 H5          3.8634    8.8194    0.3837 H         1 <0>         0.1357
     36 H6          2.7184   10.9916    0.5409 H         1 <0>         0.1372
     37 H7          0.9730   11.3485    2.2393 H         1 <0>         0.1383
     38 H8          1.2008    6.2331    3.4730 H         1 <0>         0.4089
     39 H9          1.2497    7.1067    8.0406 H         1 <0>         0.1843
     40 H10         0.4314    1.9335    7.1272 H         1 <0>         0.4427
     41 H11        -0.2285    0.3594    8.8303 H         1 <0>         0.1417
     42 H12        -0.6026   -0.0406   11.2520 H         1 <0>         0.1461
     43 H13        -0.3199    1.8535   12.8323 H         1 <0>         0.1343
     44 H14         0.6379    5.6692   10.5704 H         1 <0>         0.1533
     45 H15        -0.3859    6.2639   11.9043 H         1 <0>         0.0837
     46 H16         2.6307    5.7937   11.9876 H         1 <0>         0.1331
     47 H17         1.8002    7.3677   12.0274 H         1 <0>         0.1442
     48 H18         2.3798    6.6978   14.2097 H         1 <0>         0.4302
     49 H19        -0.5184    4.5183   14.0560 H         1 <0>         0.0938
     50 H20         0.4377    3.0308   13.8226 H         1 <0>         0.1275
     51 H21         0.7035    5.1905   16.0880 H         1 <0>         0.0847
     52 H22         1.6161    3.6644   16.0064 H         1 <0>         0.1091
     53 H23         2.4831    5.2154   16.1104 H         1 <0>         0.0872
     54 H24         0.7409    6.6395   14.0663 H         1 <0>         0.4258
@<TRIPOS>BOND
     1    1    2 1
     2    1   32 1
     3    1   33 1
     4    1   34 1
     5    2    7 ar
     6    2    3 ar
     7    3    4 ar
     8    3   35 1
     9    4    5 ar
    10    4   36 1
    11    5    6 ar
    12    5   37 1
    13    6    7 ar
    14    6   31 1
    15    7    8 1
    16    8    9 am
    17    8   38 1
    18    9   10 2
    19    9   11 1
    20   11   15 1
    21   11   12 2
    22   12   13 1
    23   12   39 1
    24   13   14 2
    25   14   15 1
    26   14   16 1
    27   16   17 1
    28   16   40 1
    29   17   22 ar
    30   17   18 ar
    31   18   19 ar
    32   18   41 1
    33   19   20 ar
    34   19   42 1
    35   20   21 ar
    36   20   43 1
    37   21   22 ar
    38   21   23 1
    39   23   29 1
    40   23   24 1
    41   24   25 1
    42   24   44 1
    43   24   45 1
    44   25   26 1
    45   25   46 1
    46   25   47 1
    47   26   27 1
    48   26   48 1
    49   26   54 1
    50   27   28 1
    51   27   29 1
    52   27   30 1
    53   29   49 1
    54   29   50 1
    55   30   51 1
    56   30   52 1
    57   30   53 1
@<TRIPOS>MOLECULE
CHEMBL185851__1
   54    57     0     0     0
SMALL
USER_CHARGES

@<TRIPOS>ATOM
      1 C1         -3.0729    1.7009    0.3908 C.3       1 <0>        -0.1168
      2 C2         -2.5688    0.3060    0.1244 C.ar      1 <0>        -0.0818
      3 C3         -2.8449   -0.3106   -1.0807 C.ar      1 <0>        -0.1037
      4 C4         -2.3831   -1.5903   -1.3265 C.ar      1 <0>        -0.0995
      5 C5         -1.6434   -2.2581   -0.3675 C.ar      1 <0>        -0.1046
      6 C6         -1.3639   -1.6477    0.8402 C.ar      1 <0>        -0.0221
      7 C7         -1.8218   -0.3586    1.0875 C.ar      1 <0>         0.1354
      8 N1         -1.5356    0.2652    2.3066 N.am      1 <0>        -0.6667
      9 C8         -1.8127   -0.3629    3.4664 C.2       1 <0>         0.6020
     10 O1         -2.2174   -1.5113    3.4552 O.2       1 <0>        -0.4722
     11 C9         -1.6273    0.3346    4.7380 C.2       1 <0>        -0.2661
     12 C10        -1.8413   -0.1132    6.0343 C.2       1 <0>         0.1551
     13 N2         -1.5872    0.7403    6.9938 N.2       1 <0>        -0.5466
     14 C11        -1.1510    1.9604    6.7345 C.2       1 <0>         0.2558
     15 S1         -1.0555    1.9965    5.0547 S.3       1 <0>         0.2333
     16 N3         -0.8421    2.9650    7.6292 N.pl3     1 <0>        -0.5958
     17 C12        -0.8714    2.7116    8.9975 C.ar      1 <0>         0.4252
     18 C13        -1.0474    1.4103    9.4522 C.ar      1 <0>        -0.2121
     19 C14        -1.0748    1.1673   10.8158 C.ar      1 <0>         0.0639
     20 C15        -0.9247    2.2373   11.6829 C.ar      1 <0>        -0.2306
     21 C16        -0.7523    3.5144   11.1623 C.ar      1 <0>         0.4642
     22 N4         -0.7257    3.7126    9.8528 N.ar      1 <0>        -0.5358
     23 N5         -0.6010    4.5940   12.0246 N.pl3     1 <0>        -0.5906
     24 C17        -0.3311    5.9432   11.5049 C.3       1 <0>         0.1017
     25 C18         0.8866    6.5134   12.2399 C.3       1 <0>         0.0422
     26 N6          0.6583    6.4402   13.6892 N.3       1 <0>        -0.6849
     27 C19         0.5262    5.0478   14.1382 C.3       1 <0>         0.0683
     28 H1          1.4168    4.4877   13.8532 H         1 <0>         0.0521
     29 C20        -0.7124    4.4186   13.4807 C.3       1 <0>         0.1191
     30 C21         0.3673    5.0148   15.6595 C.3       1 <0>        -0.1526
     31 Cl1        -0.4359   -2.4865    2.0439 Cl        1 <0>        -0.0448
     32 H2         -2.3317    2.4256    0.0539 H         1 <0>         0.0768
     33 H3         -4.0069    1.8589   -0.1485 H         1 <0>         0.0783
     34 H4         -3.2447    1.8272    1.4598 H         1 <0>         0.0642
     35 H5         -3.4226    0.2078   -1.8318 H         1 <0>         0.1369
     36 H6         -2.6009   -2.0698   -2.2695 H         1 <0>         0.1388
     37 H7         -1.2841   -3.2578   -0.5627 H         1 <0>         0.1402
     38 H8         -1.1378    1.1498    2.3171 H         1 <0>         0.4079
     39 H9         -2.1983   -1.1115    6.2401 H         1 <0>         0.2043
     40 H10        -0.6047    3.8477    7.3044 H         1 <0>         0.4409
     41 H11        -1.1619    0.5975    8.7503 H         1 <0>         0.2173
     42 H12        -1.2106    0.1651   11.1948 H         1 <0>         0.1773
     43 H13        -0.9419    2.0808   12.7513 H         1 <0>         0.1786
     44 H14        -0.1217    5.8890   10.4366 H         1 <0>         0.0756
     45 H15        -1.1965    6.5826   11.6793 H         1 <0>         0.1068
     46 H16         1.7722    5.9329   11.9814 H         1 <0>         0.0434
     47 H17         1.0343    7.5529   11.9470 H         1 <0>         0.1052
     48 H18         1.3908    6.9153   14.1951 H         1 <0>         0.3628
     49 H19        -1.6138    4.9142   13.8413 H         1 <0>         0.1032
     50 H20        -0.7552    3.3559   13.7192 H         1 <0>         0.1054
     51 H21        -0.5239    5.5742   15.9440 H         1 <0>         0.0739
     52 H22         0.2693    3.9814   15.9923 H         1 <0>         0.0717
     53 H23         1.2433    5.4652   16.1262 H         1 <0>         0.0695
     54 H24        -0.6001    4.6122    9.5122 H         1 <0>         0.4298
@<TRIPOS>BOND
     1    1    2 1
     2    1   32 1
     3    1   33 1
     4    1   34 1
     5    2    7 ar
     6    2    3 ar
     7    3    4 ar
     8    3   35 1
     9    4    5 ar
    10    4   36 1
    11    5    6 ar
    12    5   37 1
    13    6    7 ar
    14    6   31 1
    15    7    8 1
    16    8    9 am
    17    8   38 1
    18    9   10 2
    19    9   11 1
    20   11   15 1
    21   11   12 2
    22   12   13 1
    23   12   39 1
    24   13   14 2
    25   14   15 1
    26   14   16 1
    27   16   17 1
    28   16   40 1
    29   17   22 ar
    30   17   18 ar
    31   18   19 ar
    32   18   41 1
    33   19   20 ar
    34   19   42 1
    35   20   21 ar
    36   20   43 1
    37   21   22 ar
    38   21   23 1
    39   22   54 1
    40   23   29 1
    41   23   24 1
    42   24   25 1
    43   24   44 1
    44   24   45 1
    45   25   26 1
    46   25   46 1
    47   25   47 1
    48   26   27 1
    49   26   48 1
    50   27   28 1
    51   27   29 1
    52   27   30 1
    53   29   49 1
    54   29   50 1
    55   30   51 1
    56   30   52 1
    57   30   53 1
@<TRIPOS>MOLECULE
CHEMBL185851__2
   55    58     0     0     0
SMALL
USER_CHARGES

@<TRIPOS>ATOM
      1 C1         -2.9757    1.6992    0.3696 C.3       1 <0>        -0.1165
      2 C2         -2.4779    0.3005    0.1108 C.ar      1 <0>        -0.0810
      3 C3         -2.7452   -0.3163   -1.0962 C.ar      1 <0>        -0.1026
      4 C4         -2.2891   -1.5994   -1.3350 C.ar      1 <0>        -0.0962
      5 C5         -1.5639   -2.2704   -0.3671 C.ar      1 <0>        -0.1035
      6 C6         -1.2934   -1.6597    0.8426 C.ar      1 <0>        -0.0214
      7 C7         -1.7454   -0.3672    1.0829 C.ar      1 <0>         0.1308
      8 N1         -1.4682    0.2568    2.3039 N.am      1 <0>        -0.6637
      9 C8         -1.7616   -0.3676    3.4617 C.2       1 <0>         0.5966
     10 O1         -2.1737   -1.5133    3.4482 O.2       1 <0>        -0.4653
     11 C9         -1.5852    0.3309    4.7342 C.2       1 <0>        -0.2475
     12 C10        -1.8157   -0.1134    6.0288 C.2       1 <0>         0.1475
     13 N2         -1.5663    0.7401    6.9896 N.2       1 <0>        -0.5407
     14 C11        -1.1194    1.9568    6.7329 C.2       1 <0>         0.2285
     15 S1         -1.0059    1.9895    5.0541 S.3       1 <0>         0.2549
     16 N3         -0.8135    2.9610    7.6292 N.pl3     1 <0>        -0.5877
     17 C12        -0.8573    2.7096    8.9975 C.ar      1 <0>         0.4399
     18 C13        -1.0471    1.4103    9.4522 C.ar      1 <0>        -0.1962
     19 C14        -1.0889    1.1693   10.8158 C.ar      1 <0>         0.0699
     20 C15        -0.9390    2.2393   11.6829 C.ar      1 <0>        -0.2191
     21 C16        -0.7523    3.5144   11.1623 C.ar      1 <0>         0.4494
     22 N4         -0.7121    3.7107    9.8528 N.ar      1 <0>        -0.5297
     23 N5         -0.6010    4.5940   12.0246 N.pl3     1 <0>        -0.6260
     24 C17        -0.3311    5.9441   11.5063 C.3       1 <0>         0.0785
     25 C18         0.8741    6.5205   12.2565 C.3       1 <0>        -0.0187
     26 N6          0.6217    6.4655   13.7020 N.4       1 <0>        -0.5070
     27 C19         0.5164    5.0675   14.1385 C.3       1 <0>         0.0131
     28 H1          1.4161    4.5264   13.8453 H         1 <0>         0.1496
     29 C20        -0.7122    4.4201   13.4812 C.3       1 <0>         0.0988
     30 C21         0.3645    5.0181   15.6601 C.3       1 <0>        -0.1874
     31 Cl1        -0.3836   -2.5024    2.0574 Cl        1 <0>        -0.0459
     32 H2         -2.2263    2.4185    0.0393 H         1 <0>         0.0770
     33 H3         -3.9029    1.8623   -0.1799 H         1 <0>         0.0795
     34 H4         -3.1581    1.8284    1.4364 H         1 <0>         0.0624
     35 H5         -3.3114    0.2045   -1.8541 H         1 <0>         0.1383
     36 H6         -2.4999   -2.0791   -2.2794 H         1 <0>         0.1407
     37 H7         -1.2091   -3.2726   -0.5567 H         1 <0>         0.1417
     38 H8         -1.0648    1.1388    2.3172 H         1 <0>         0.4073
     39 H9         -2.1814   -1.1090    6.2325 H         1 <0>         0.2081
     40 H10        -0.5680    3.8418    7.3056 H         1 <0>         0.4427
     41 H11        -1.1612    0.5974    8.7503 H         1 <0>         0.2241
     42 H12        -1.2356    0.1687   11.1947 H         1 <0>         0.1849
     43 H13        -0.9672    2.0844   12.7513 H         1 <0>         0.1806
     44 H14        -0.1075    5.8894   10.4409 H         1 <0>         0.1148
     45 H15        -1.2017    6.5795   11.6686 H         1 <0>         0.1216
     46 H16         1.7630    5.9355   12.0203 H         1 <0>         0.1414
     47 H17         1.0294    7.5560   11.9538 H         1 <0>         0.1607
     48 H18         1.3816    6.9133   14.1921 H         1 <0>         0.4440
     49 H19        -1.6206    4.9042   13.8396 H         1 <0>         0.1188
     50 H20        -0.7405    3.3574   13.7220 H         1 <0>         0.1436
     51 H21        -0.5353    5.5590   15.9531 H         1 <0>         0.0908
     52 H22         0.2864    3.9803   15.9840 H         1 <0>         0.1163
     53 H23         1.2343    5.4800   16.1272 H         1 <0>         0.0970
     54 H24        -0.2400    6.9474   13.9103 H         1 <0>         0.4325
     55 H25        -0.5767    4.6088    9.5123 H         1 <0>         0.4298
@<TRIPOS>BOND
     1    1    2 1
     2    1   32 1
     3    1   33 1
     4    1   34 1
     5    2    7 ar
     6    2    3 ar
     7    3    4 ar
     8    3   35 1
     9    4    5 ar
    10    4   36 1
    11    5    6 ar
    12    5   37 1
    13    6    7 ar
    14    6   31 1
    15    7    8 1
    16    8    9 am
    17    8   38 1
    18    9   10 2
    19    9   11 1
    20   11   15 1
    21   11   12 2
    22   12   13 1
    23   12   39 1
    24   13   14 2
    25   14   15 1
    26   14   16 1
    27   16   17 1
    28   16   40 1
    29   17   22 ar
    30   17   18 ar
    31   18   19 ar
    32   18   41 1
    33   19   20 ar
    34   19   42 1
    35   20   21 ar
    36   20   43 1
    37   21   22 ar
    38   21   23 1
    39   22   55 1
    40   23   29 1
    41   23   24 1
    42   24   25 1
    43   24   44 1
    44   24   45 1
    45   25   26 1
    46   25   46 1
    47   25   47 1
    48   26   27 1
    49   26   48 1
    50   26   54 1
    51   27   28 1
    52   27   29 1
    53   27   30 1
    54   29   49 1
    55   29   50 1
    56   30   51 1
    57   30   52 1
    58   30   53 1
@<TRIPOS>MOLECULE
CHEMBL26209
   56    60     0     0     0
SMALL
USER_CHARGES

@<TRIPOS>ATOM
      1 C1          0.1199    0.9011    3.4907 C.3       1 <0>        -0.1248
      2 C2          0.2213   -0.5475    3.0875 C.2       1 <0>         0.1476
      3 C3         -0.7443   -1.3968    3.4747 C.2       1 <0>        -0.1435
      4 C4         -0.6601   -2.8067    3.0905 C.ar      1 <0>         0.0396
      5 C5         -1.6391   -3.7318    3.4673 C.ar      1 <0>        -0.1310
      6 C6         -1.5309   -5.0372    3.0932 C.ar      1 <0>        -0.0271
      7 C7         -0.4414   -5.4761    2.3265 C.ar      1 <0>         0.0609
      8 C8          0.5528   -4.5678    1.9358 C.ar      1 <0>         0.1058
      9 C9          0.4472   -3.2254    2.3177 C.ar      1 <0>        -0.1400
     10 C10         1.4503   -2.2277    1.9428 C.2       1 <0>         0.5492
     11 N1          1.2892   -0.9490    2.3365 N.am      1 <0>        -0.6196
     12 O1          2.4189   -2.5491    1.2773 O.2       1 <0>        -0.5401
     13 N2          1.4727   -5.2905    1.2054 N.pl3     1 <0>        -0.4912
     14 C11         1.0354   -6.5840    1.1660 C.2       1 <0>         0.5349
     15 N3         -0.0904   -6.6904    1.8261 N.2       1 <0>        -0.5135
     16 N4          1.6829   -7.6225    0.5267 N.pl3     1 <0>        -0.6566
     17 C12         1.1976   -8.9294    0.6470 C.ar      1 <0>         0.1777
     18 C13        -0.0020   -9.2852    0.0425 C.ar      1 <0>        -0.0099
     19 C14        -0.4781  -10.5773    0.1631 C.ar      1 <0>        -0.0999
     20 C15         0.2377  -11.5152    0.8841 C.ar      1 <0>        -0.0907
     21 C16         1.4316  -11.1646    1.4874 C.ar      1 <0>        -0.1005
     22 C17         1.9168   -9.8760    1.3664 C.ar      1 <0>        -0.0283
     23 Cl1         3.4196   -9.4391    2.1177 Cl        1 <0>        -0.0491
     24 Cl2        -0.9018   -8.1084   -0.8626 Cl        1 <0>        -0.0382
     25 C18         2.6930   -4.7676    0.5861 C.3       1 <0>         0.0859
     26 C19        -1.9052   -0.9022    4.2987 C.3       1 <0>        -0.0797
     27 C20        -3.0612   -0.5714    3.3902 C.2       1 <0>         0.5269
     28 O2         -2.9531   -0.7224    2.1917 O.2       1 <0>        -0.5230
     29 N5         -4.2152   -0.1078    3.9096 N.am      1 <0>        -0.6238
     30 C21        -4.4791    0.1274    5.3367 C.3       1 <0>         0.0970
     31 C22        -5.9330    0.6307    5.4569 C.3       1 <0>        -0.1333
     32 C23        -6.5892    0.1127    4.1498 C.3       1 <0>        -0.1349
     33 C24        -5.4198    0.2534    3.1403 C.3       1 <0>         0.1039
     34 H1          0.9745    1.4493    3.0943 H         1 <0>         0.0748
     35 H2         -0.8012    1.3257    3.0914 H         1 <0>         0.0873
     36 H3          0.1128    0.9759    4.5781 H         1 <0>         0.0911
     37 H4         -2.4842   -3.4099    4.0577 H         1 <0>         0.1321
     38 H5         -2.2927   -5.7426    3.3908 H         1 <0>         0.1345
     39 H6          2.4743   -7.4461   -0.0058 H         1 <0>         0.4211
     40 H7         -1.4105  -10.8545   -0.3062 H         1 <0>         0.1444
     41 H8         -0.1367  -12.5240    0.9767 H         1 <0>         0.1458
     42 H9          1.9878  -11.8998    2.0501 H         1 <0>         0.1445
     43 H10         3.4314   -4.5568    1.3597 H         1 <0>         0.0774
     44 H11         3.0941   -5.5069   -0.1072 H         1 <0>         0.0638
     45 H12         2.4615   -3.8501    0.0450 H         1 <0>         0.1131
     46 H13        -2.2070   -1.6772    5.0032 H         1 <0>         0.1070
     47 H14        -1.6069   -0.0087    4.8471 H         1 <0>         0.1056
     48 H15        -4.3614   -0.8021    5.8936 H         1 <0>         0.0715
     49 H16        -3.7927    0.8818    5.7211 H         1 <0>         0.0704
     50 H17        -6.4200    0.1978    6.3307 H         1 <0>         0.0843
     51 H18        -5.9621    1.7196    5.4978 H         1 <0>         0.0778
     52 H19        -6.8976   -0.9276    4.2531 H         1 <0>         0.0776
     53 H20        -7.4312    0.7412    3.8597 H         1 <0>         0.0851
     54 H21        -5.3469    1.2800    2.7812 H         1 <0>         0.0678
     55 H22        -5.5561   -0.4329    2.3045 H         1 <0>         0.0789
     56 H23         1.9560   -0.2924    2.0811 H         1 <0>         0.4136
@<TRIPOS>BOND
     1    1    2 1
     2    1   34 1
     3    1   35 1
     4    1   36 1
     5    2   11 1
     6    2    3 2
     7    3    4 1
     8    3   26 1
     9    4    9 ar
    10    4    5 ar
    11    5    6 ar
    12    5   37 1
    13    6    7 ar
    14    6   38 1
    15    7   15 1
    16    7    8 ar
    17    8    9 ar
    18    8   13 1
    19    9   10 1
    20   10   11 am
    21   10   12 2
    22   11   56 1
    23   13   14 1
    24   13   25 1
    25   14   15 2
    26   14   16 1
    27   16   17 1
    28   16   39 1
    29   17   22 ar
    30   17   18 ar
    31   18   19 ar
    32   18   24 1
    33   19   20 ar
    34   19   40 1
    35   20   21 ar
    36   20   41 1
    37   21   22 ar
    38   21   42 1
    39   22   23 1
    40   25   43 1
    41   25   44 1
    42   25   45 1
    43   26   27 1
    44   26   46 1
    45   26   47 1
    46   27   28 2
    47   27   29 am
    48   29   33 1
    49   29   30 1
    50   30   31 1
    51   30   48 1
    52   30   49 1
    53   31   32 1
    54   31   50 1
    55   31   51 1
    56   32   33 1
    57   32   52 1
    58   32   53 1
    59   33   54 1
    60   33   55 1
@<TRIPOS>MOLECULE
CHEMBL541726
   54    57     0     0     0
SMALL
USER_CHARGES

@<TRIPOS>ATOM
      1 C1         -0.3087    1.6094    0.0616 C.3       1 <0>        -0.0468
      2 N1         -0.2517    0.1417    0.0378 N.4       1 <0>        -0.3838
      3 C2         -1.6167   -0.3995    0.0459 C.3       1 <0>        -0.0231
      4 C3         -1.5614   -1.9243   -0.0944 C.3       1 <0>         0.0997
      5 N2         -0.6900   -2.4587    0.9636 N.pl3     1 <0>        -0.6457
      6 C4          0.6424   -1.8587    1.1331 C.3       1 <0>         0.1006
      7 C5          0.4830   -0.3370    1.2155 C.3       1 <0>        -0.0229
      8 C6         -1.1168   -3.5077    1.7858 C.ar      1 <0>         0.1762
      9 C7         -2.4149   -3.9896    1.6792 C.ar      1 <0>        -0.1619
     10 C8         -2.8358   -5.0248    2.4901 C.ar      1 <0>        -0.0664
     11 C9         -1.9611   -5.5842    3.4122 C.ar      1 <0>         0.1378
     12 C10        -0.6631   -5.1025    3.5189 C.ar      1 <0>        -0.1016
     13 C11        -0.2405   -4.0707    2.7044 C.ar      1 <0>        -0.1612
     14 N3         -2.3883   -6.6342    4.2352 N.pl3     1 <0>        -0.6389
     15 C12        -3.2846   -7.5749    3.7501 C.ar      1 <0>         0.5377
     16 N4         -3.6382   -7.5308    2.4744 N.ar      1 <0>        -0.5352
     17 C13        -4.4901   -8.4116    1.9767 C.ar      1 <0>         0.1868
     18 C14        -5.0155   -9.3927    2.8128 C.ar      1 <0>        -0.0032
     19 C15        -4.6203   -9.4069    4.1474 C.ar      1 <0>         0.1750
     20 N5         -3.7603   -8.4970    4.5735 N.ar      1 <0>        -0.5372
     21 N6         -5.9212  -10.3431    2.3227 N.am      1 <0>        -0.6451
     22 C16        -5.9133  -10.6700    1.0152 C.2       1 <0>         0.5729
     23 O1         -5.0545  -10.2202    0.2812 O.2       1 <0>        -0.4934
     24 C17        -6.9475  -11.5745    0.4739 C.ar      1 <0>        -0.1209
     25 C18        -8.1419  -11.0533   -0.0308 C.ar      1 <0>         0.0053
     26 C19        -9.1041  -11.9055   -0.5357 C.ar      1 <0>        -0.1040
     27 C20        -8.8882  -13.2718   -0.5422 C.ar      1 <0>        -0.0692
     28 C21        -7.7087  -13.7953   -0.0440 C.ar      1 <0>        -0.1033
     29 C22        -6.7344  -12.9556    0.4586 C.ar      1 <0>         0.0036
     30 Cl1        -5.2519  -13.6144    1.0767 Cl        1 <0>        -0.0367
     31 Cl2        -8.4156   -9.3390   -0.0226 Cl        1 <0>        -0.0409
     32 H1          0.7039    2.0125    0.0475 H         1 <0>         0.1247
     33 H2         -0.8539    1.9660   -0.8122 H         1 <0>         0.1247
     34 H3         -0.8182    1.9386    0.9672 H         1 <0>         0.1213
     35 H4         -2.1056   -0.1384    0.9845 H         1 <0>         0.1321
     36 H5         -2.1797    0.0219   -0.7868 H         1 <0>         0.1400
     37 H6         -2.5639   -2.3386    0.0127 H         1 <0>         0.1266
     38 H7         -1.1554   -2.1878   -1.0711 H         1 <0>         0.0868
     39 H8          1.0969   -2.2297    2.0518 H         1 <0>         0.1259
     40 H9          1.2709   -2.1156    0.2804 H         1 <0>         0.0862
     41 H10         1.4673    0.1304    1.2446 H         1 <0>         0.1400
     42 H11        -0.0694   -0.0778    2.1187 H         1 <0>         0.1321
     43 H12        -3.0953   -3.5543    0.9623 H         1 <0>         0.1246
     44 H13        -3.8454   -5.3993    2.4075 H         1 <0>         0.1371
     45 H14         0.0172   -5.5376    4.2360 H         1 <0>         0.1308
     46 H15         0.7704   -3.6990    2.7842 H         1 <0>         0.1261
     47 H16        -2.0572   -6.7034    5.1443 H         1 <0>         0.4250
     48 H17        -4.7746   -8.3699    0.9357 H         1 <0>         0.1862
     49 H18        -5.0075  -10.1536    4.8249 H         1 <0>         0.1766
     50 H19        -6.5538  -10.7658    2.9244 H         1 <0>         0.4181
     51 H20       -10.0277  -11.5042   -0.9261 H         1 <0>         0.1514
     52 H21        -9.6446  -13.9333   -0.9381 H         1 <0>         0.1530
     53 H22        -7.5477  -14.8632   -0.0518 H         1 <0>         0.1518
     54 H23         0.2228   -0.1618   -0.7994 H         1 <0>         0.4246
@<TRIPOS>BOND
     1    1    2 1
     2    1   32 1
     3    1   33 1
     4    1   34 1
     5    2    7 1
     6    2    3 1
     7    2   54 1
     8    3    4 1
     9    3   35 1
    10    3   36 1
    11    4    5 1
    12    4   37 1
    13    4   38 1
    14    5    6 1
    15    5    8 1
    16    6    7 1
    17    6   39 1
    18    6   40 1
    19    7   41 1
    20    7   42 1
    21    8   13 ar
    22    8    9 ar
    23    9   10 ar
    24    9   43 1
    25   10   11 ar
    26   10   44 1
    27   11   12 ar
    28   11   14 1
    29   12   13 ar
    30   12   45 1
    31   13   46 1
    32   14   15 1
    33   14   47 1
    34   15   20 ar
    35   15   16 ar
    36   16   17 ar
    37   17   18 ar
    38   17   48 1
    39   18   19 ar
    40   18   21 1
    41   19   20 ar
    42   19   49 1
    43   21   22 am
    44   21   50 1
    45   22   23 2
    46   22   24 1
    47   24   29 ar
    48   24   25 ar
    49   25   26 ar
    50   25   31 1
    51   26   27 ar
    52   26   51 1
    53   27   28 ar
    54   27   52 1
    55   28   29 ar
    56   28   53 1
    57   29   30 1
@<TRIPOS>MOLECULE
CHEMBL541726__1
   53    56     0     0     0
SMALL
USER_CHARGES

@<TRIPOS>ATOM
      1 C1         -0.3154    1.6021    0.0568 C.3       1 <0>         0.0244
      2 N1         -0.2570    0.1344    0.0347 N.3       1 <0>        -0.5427
      3 C2         -1.6043   -0.4448   -0.0507 C.3       1 <0>         0.0385
      4 C3         -1.4935   -1.9596   -0.2536 C.3       1 <0>         0.1259
      5 N2         -0.6451   -2.5130    0.8129 N.pl3     1 <0>        -0.6323
      6 C4          0.6675   -1.8933    1.0499 C.3       1 <0>         0.1267
      7 C5          0.4717   -0.3811    1.2014 C.3       1 <0>         0.0388
      8 C6         -1.0753   -3.6007    1.5814 C.ar      1 <0>         0.2081
      9 C7         -2.3581   -4.1055    1.4134 C.ar      1 <0>        -0.1797
     10 C8         -2.7823   -5.1789    2.1713 C.ar      1 <0>        -0.0594
     11 C9         -1.9263   -5.7536    3.1014 C.ar      1 <0>         0.1021
     12 C10        -0.6436   -5.2489    3.2695 C.ar      1 <0>        -0.0939
     13 C11        -0.2175   -4.1788    2.5079 C.ar      1 <0>        -0.1798
     14 N3         -2.3568   -6.8423    3.8706 N.pl3     1 <0>        -0.6334
     15 C12        -3.2154   -7.7829    3.3215 C.ar      1 <0>         0.5440
     16 N4         -3.5276   -7.6990    2.0370 N.ar      1 <0>        -0.5319
     17 C13        -4.3427   -8.5784    1.4790 C.ar      1 <0>         0.1905
     18 C14        -4.8734   -9.6007    2.2605 C.ar      1 <0>        -0.0165
     19 C15        -4.5223   -9.6563    3.6063 C.ar      1 <0>         0.1746
     20 N5         -3.6974   -8.7448    4.0942 N.ar      1 <0>        -0.5444
     21 N6         -5.7409  -10.5512    1.7056 N.am      1 <0>        -0.6433
     22 C16        -5.6825  -10.8291    0.3881 C.2       1 <0>         0.5688
     23 O1         -4.8101  -10.3343   -0.2994 O.2       1 <0>        -0.4921
     24 C17        -6.6778  -11.7343   -0.2204 C.ar      1 <0>        -0.1171
     25 C18        -7.8662  -11.2199   -0.7460 C.ar      1 <0>         0.0047
     26 C19        -8.7919  -12.0728   -1.3140 C.ar      1 <0>        -0.1049
     27 C20        -8.5456  -13.4332   -1.3630 C.ar      1 <0>        -0.0720
     28 C21        -7.3718  -13.9499   -0.8444 C.ar      1 <0>        -0.1049
     29 C22        -6.4336  -13.1091   -0.2789 C.ar      1 <0>         0.0033
     30 Cl1        -4.9581  -13.7591    0.3647 Cl        1 <0>        -0.0372
     31 Cl2        -8.1781   -9.5133   -0.6847 Cl        1 <0>        -0.0376
     32 H1          0.6969    2.0062    0.0432 H         1 <0>         0.0704
     33 H2         -0.8601    1.9573   -0.8179 H         1 <0>         0.0701
     34 H3         -0.8261    1.9318    0.9615 H         1 <0>         0.0255
     35 H4         -2.1474   -0.2401    0.8719 H         1 <0>         0.0382
     36 H5         -2.1374   -0.0031   -0.8927 H         1 <0>         0.0853
     37 H6         -2.4851   -2.4093   -0.2031 H         1 <0>         0.0870
     38 H7         -1.0433   -2.1671   -1.2244 H         1 <0>         0.0697
     39 H8          1.1046   -2.2992    1.9622 H         1 <0>         0.0862
     40 H9          1.3254   -2.0944    0.2044 H         1 <0>         0.0692
     41 H10         1.4441    0.1068    1.2676 H         1 <0>         0.0853
     42 H11        -0.1003   -0.1773    2.1066 H         1 <0>         0.0382
     43 H12        -3.0240   -3.6583    0.6902 H         1 <0>         0.1241
     44 H13        -3.7800   -5.5713    2.0409 H         1 <0>         0.1300
     45 H14         0.0222   -5.6959    3.9929 H         1 <0>         0.1234
     46 H15         0.7816   -3.7891    2.6354 H         1 <0>         0.1254
     47 H16        -2.0545   -6.9382    4.7873 H         1 <0>         0.4212
     48 H17        -4.5935   -8.5040    0.4312 H         1 <0>         0.1841
     49 H18        -4.9149  -10.4356    4.2426 H         1 <0>         0.1725
     50 H19        -6.3835  -11.0091    2.2698 H         1 <0>         0.4154
     51 H20        -9.7108  -11.6768   -1.7206 H         1 <0>         0.1504
     52 H21        -9.2735  -14.0952   -1.8081 H         1 <0>         0.1512
     53 H22        -7.1869  -15.0132   -0.8857 H         1 <0>         0.1502
@<TRIPOS>BOND
     1    1    2 1
     2    1   32 1
     3    1   33 1
     4    1   34 1
     5    2    7 1
     6    2    3 1
     7    3    4 1
     8    3   35 1
     9    3   36 1
    10    4    5 1
    11    4   37 1
    12    4   38 1
    13    5    6 1
    14    5    8 1
    15    6    7 1
    16    6   39 1
    17    6   40 1
    18    7   41 1
    19    7   42 1
    20    8   13 ar
    21    8    9 ar
    22    9   10 ar
    23    9   43 1
    24   10   11 ar
    25   10   44 1
    26   11   12 ar
    27   11   14 1
    28   12   13 ar
    29   12   45 1
    30   13   46 1
    31   14   15 1
    32   14   47 1
    33   15   20 ar
    34   15   16 ar
    35   16   17 ar
    36   17   18 ar
    37   17   48 1
    38   18   19 ar
    39   18   21 1
    40   19   20 ar
    41   19   49 1
    42   21   22 am
    43   21   50 1
    44   22   23 2
    45   22   24 1
    46   24   29 ar
    47   24   25 ar
    48   25   26 ar
    49   25   31 1
    50   26   27 ar
    51   26   51 1
    52   27   28 ar
    53   27   52 1
    54   28   29 ar
    55   28   53 1
    56   29   30 1
@<TRIPOS>MOLECULE
CHEMBL87875
   43    46     0     0     0
SMALL
USER_CHARGES

@<TRIPOS>ATOM
      1 C1         -1.2949    1.1845    0.2217 C.3       1 <0>        -0.1166
      2 C2         -0.6107   -0.1530    0.1026 C.ar      1 <0>        -0.0855
      3 C3         -0.6194   -0.8292   -1.1021 C.ar      1 <0>        -0.1057
      4 C4          0.0079   -2.0563   -1.2128 C.ar      1 <0>        -0.1075
      5 C5          0.6466   -2.6112   -0.1188 C.ar      1 <0>        -0.1069
      6 C6          0.6596   -1.9401    1.0891 C.ar      1 <0>        -0.0245
      7 C7          0.0338   -0.7040    1.2019 C.ar      1 <0>         0.1454
      8 N1          0.0489   -0.0191    2.4217 N.am      1 <0>        -0.6723
      9 C8         -0.3474   -0.6421    3.5492 C.2       1 <0>         0.5617
     10 O1         -0.6217   -1.8267    3.5252 O.2       1 <0>        -0.4977
     11 C9         -0.4485    0.1125    4.8119 C.ar      1 <0>        -0.1373
     12 C10        -0.1405    1.4798    4.8504 C.ar      1 <0>        -0.0664
     13 C11        -0.2266    2.1924    6.0003 C.ar      1 <0>        -0.0866
     14 C12        -0.6331    1.5794    7.2118 C.ar      1 <0>         0.1558
     15 C13        -0.9392    0.1979    7.1473 C.ar      1 <0>        -0.1776
     16 C14        -0.8588   -0.5237    5.9886 C.ar      1 <0>         0.0194
     17 S1         -1.3900   -0.1690    8.8264 S.3       1 <0>         0.0199
     18 C15        -1.1526    1.4750    9.4861 C.2       1 <0>         0.4076
     19 N2         -0.7652    2.1495    8.4251 N.2       1 <0>        -0.5694
     20 N3         -1.3304    1.9226   10.7785 N.pl3     1 <0>        -0.6023
     21 C16        -1.2083    3.2845   11.0695 C.ar      1 <0>         0.1502
     22 C17        -1.4335    4.2311   10.0782 C.ar      1 <0>        -0.1276
     23 C18        -1.3120    5.5756   10.3691 C.ar      1 <0>        -0.0946
     24 C19        -0.9667    5.9800   11.6456 C.ar      1 <0>        -0.1349
     25 C20        -0.7414    5.0403   12.6348 C.ar      1 <0>        -0.0952
     26 C21        -0.8672    3.6943   12.3522 C.ar      1 <0>        -0.1465
     27 Cl1         1.4610   -2.6372    2.4622 Cl        1 <0>        -0.0446
     28 H1         -0.5886    1.9772   -0.0248 H         1 <0>         0.0757
     29 H2         -2.1392    1.2232   -0.4666 H         1 <0>         0.0748
     30 H3         -1.6519    1.3204    1.2426 H         1 <0>         0.0684
     31 H4         -1.1173   -0.3989   -1.9584 H         1 <0>         0.1335
     32 H5         -0.0012   -2.5828   -2.1557 H         1 <0>         0.1348
     33 H6          1.1354   -3.5701   -0.2085 H         1 <0>         0.1365
     34 H7          0.3447    0.9040    2.4560 H         1 <0>         0.4109
     35 H8          0.1728    1.9762    3.9438 H         1 <0>         0.1337
     36 H9          0.0187    3.2442    5.9932 H         1 <0>         0.1396
     37 H10        -1.1057   -1.5751    5.9826 H         1 <0>         0.1465
     38 H11        -1.5401    1.2924   11.4854 H         1 <0>         0.4326
     39 H12        -1.7029    3.9159    9.0809 H         1 <0>         0.1444
     40 H13        -1.4866    6.3121    9.5987 H         1 <0>         0.1272
     41 H14        -0.8723    7.0322   11.8705 H         1 <0>         0.1252
     42 H15        -0.4711    5.3594   13.6305 H         1 <0>         0.1290
     43 H16        -0.6962    2.9610   13.1264 H         1 <0>         0.1274
@<TRIPOS>BOND
     1    1    2 1
     2    1   28 1
     3    1   29 1
     4    1   30 1
     5    2    7 ar
     6    2    3 ar
     7    3    4 ar
     8    3   31 1
     9    4    5 ar
    10    4   32 1
    11    5    6 ar
    12    5   33 1
    13    6    7 ar
    14    6   27 1
    15    7    8 1
    16    8    9 am
    17    8   34 1
    18    9   10 2
    19    9   11 1
    20   11   16 ar
    21   11   12 ar
    22   12   13 ar
    23   12   35 1
    24   13   14 ar
    25   13   36 1
    26   14   19 1
    27   14   15 ar
    28   15   16 ar
    29   15   17 1
    30   16   37 1
    31   17   18 1
    32   18   19 2
    33   18   20 1
    34   20   21 1
    35   20   38 1
    36   21   26 ar
    37   21   22 ar
    38   22   23 ar
    39   22   39 1
    40   23   24 ar
    41   23   40 1
    42   24   25 ar
    43   24   41 1
    44   25   26 ar
    45   25   42 1
    46   26   43 1
@<TRIPOS>MOLECULE
CHEMBL211460
   75    79     0     0     0
SMALL
USER_CHARGES

@<TRIPOS>ATOM
      1 C1         -0.1798   -2.4462    1.8591 C.3       1 <0>        -0.1117
      2 C2          0.7533   -2.6058    3.0317 C.ar      1 <0>        -0.0748
      3 C3          1.3196   -3.8366    3.3019 C.ar      1 <0>        -0.1161
      4 C4          2.1758   -3.9837    4.3776 C.ar      1 <0>        -0.0994
      5 C5          2.4677   -2.9000    5.1850 C.ar      1 <0>        -0.1163
      6 C6          1.9040   -1.6672    4.9190 C.ar      1 <0>        -0.0729
      7 C7          1.0488   -1.5158    3.8372 C.ar      1 <0>         0.0899
      8 O1          0.4968   -0.3026    3.5703 O.3       1 <0>        -0.2820
      9 C8         -0.6838   -0.0047    4.1457 C.2       1 <0>         0.6677
     10 O2         -1.2230   -0.8102    4.8783 O.2       1 <0>        -0.5330
     11 N1         -1.2673    1.1869    3.9089 N.am      1 <0>        -0.4915
     12 C9         -0.5971    2.1575    3.1495 C.ar      1 <0>         0.0772
     13 C10        -0.7642    2.2010    1.7732 C.ar      1 <0>        -0.0601
     14 C11        -0.1029    3.1580    1.0270 C.ar      1 <0>        -0.1494
     15 C12         0.7263    4.0732    1.6489 C.ar      1 <0>        -0.0596
     16 C13         0.8981    4.0357    3.0201 C.ar      1 <0>        -0.2059
     17 C14         0.2334    3.0835    3.7760 C.ar      1 <0>         0.1516
     18 O3          0.3963    3.0493    5.1255 O.3       1 <0>        -0.2969
     19 C15         1.2631    4.0298    5.6993 C.3       1 <0>         0.0249
     20 C16        -2.5342    1.4545    4.4177 C.ar      1 <0>         0.4655
     21 C17        -3.6756    1.0588    3.7189 C.ar      1 <0>        -0.2532
     22 C18        -4.9136    1.3451    4.2622 C.ar      1 <0>         0.1987
     23 N2         -4.9806    1.9820    5.4218 N.ar      1 <0>        -0.5535
     24 C19        -3.8798    2.3456    6.0632 C.ar      1 <0>         0.5736
     25 N3         -2.6748    2.0853    5.5782 N.ar      1 <0>        -0.5443
     26 N4         -3.9916    3.0098    7.2732 N.pl3     1 <0>        -0.6368
     27 C20        -5.2514    3.1924    7.8582 C.ar      1 <0>         0.1382
     28 C21        -6.2386    2.2295    7.6954 C.ar      1 <0>        -0.0672
     29 C22        -7.4803    2.4095    8.2720 C.ar      1 <0>        -0.1614
     30 C23        -7.7417    3.5534    9.0147 C.ar      1 <0>         0.1758
     31 C24        -6.7543    4.5163    9.1775 C.ar      1 <0>        -0.1608
     32 C25        -5.5109    4.3335    8.6057 C.ar      1 <0>        -0.1023
     33 N5         -9.0004    3.7360    9.5988 N.pl3     1 <0>        -0.6456
     34 C26        -9.3431    4.9945   10.2791 C.3       1 <0>         0.1009
     35 C27       -10.6851    5.4924    9.7322 C.3       1 <0>        -0.0233
     36 N6        -11.6928    4.4337    9.8724 N.4       1 <0>        -0.3837
     37 C28       -11.3284    3.2826    9.0369 C.3       1 <0>        -0.0232
     38 C29       -10.0203    2.6773    9.5445 C.3       1 <0>         0.0994
     39 C30       -13.0026    4.9479    9.4502 C.3       1 <0>        -0.0469
     40 C31         2.2219   -0.4866    5.8001 C.3       1 <0>        -0.1124
     41 H1          0.3940   -2.1776    0.9721 H         1 <0>         0.0796
     42 H2         -0.7046   -3.3849    1.6819 H         1 <0>         0.0738
     43 H3         -0.9037   -1.6604    2.0752 H         1 <0>         0.0578
     44 H4          1.0931   -4.6846    2.6726 H         1 <0>         0.1329
     45 H5          2.6169   -4.9469    4.5876 H         1 <0>         0.1317
     46 H6          3.1368   -3.0175    6.0246 H         1 <0>         0.1321
     47 H7         -1.4107    1.4869    1.2848 H         1 <0>         0.1350
     48 H8         -0.2339    3.1908   -0.0445 H         1 <0>         0.1354
     49 H9          1.2414    4.8191    1.0618 H         1 <0>         0.1336
     50 H10         1.5468    4.7517    3.5027 H         1 <0>         0.1366
     51 H11         2.2635    3.9200    5.2807 H         1 <0>         0.0584
     52 H12         0.8829    5.0265    5.4754 H         1 <0>         0.0563
     53 H13         1.3041    3.8909    6.7797 H         1 <0>         0.1018
     54 H14        -3.5933    0.5410    2.7747 H         1 <0>         0.1518
     55 H15        -5.8166    1.0531    3.7468 H         1 <0>         0.1804
     56 H16        -3.1976    3.3485    7.7157 H         1 <0>         0.4252
     57 H17        -6.0354    1.3401    7.1175 H         1 <0>         0.1410
     58 H18        -8.2482    1.6608    8.1450 H         1 <0>         0.1251
     59 H19        -6.9577    5.4061    9.7549 H         1 <0>         0.1261
     60 H20        -4.7416    5.0803    8.7359 H         1 <0>         0.1301
     61 H21        -9.4268    4.8200   11.3518 H         1 <0>         0.0863
     62 H22        -8.5700    5.7380   10.0852 H         1 <0>         0.1255
     63 H23       -11.0019    6.3723   10.2923 H         1 <0>         0.1400
     64 H24       -10.5747    5.7520    8.6793 H         1 <0>         0.1322
     65 H25       -12.1192    2.5340    9.0846 H         1 <0>         0.1405
     66 H26       -11.1985    3.6090    8.0051 H         1 <0>         0.1323
     67 H27        -9.6947    1.8895    8.8651 H         1 <0>         0.1268
     68 H28       -10.1735    2.2648   10.5417 H         1 <0>         0.0862
     69 H29       -12.9499    5.2647    8.4086 H         1 <0>         0.1214
     70 H30       -13.7516    4.1628    9.5538 H         1 <0>         0.1248
     71 H31       -13.2779    5.7976   10.0749 H         1 <0>         0.1247
     72 H32         3.0969    0.0330    5.4095 H         1 <0>         0.0767
     73 H33         1.3714    0.1949    5.8152 H         1 <0>         0.0627
     74 H34         2.4274   -0.8339    6.8126 H         1 <0>         0.0718
     75 H35       -11.7430    4.1446   10.8378 H         1 <0>         0.4245
@<TRIPOS>BOND
     1    1    2 1
     2    1   41 1
     3    1   42 1
     4    1   43 1
     5    2    7 ar
     6    2    3 ar
     7    3    4 ar
     8    3   44 1
     9    4    5 ar
    10    4   45 1
    11    5    6 ar
    12    5   46 1
    13    6    7 ar
    14    6   40 1
    15    7    8 1
    16    8    9 1
    17    9   10 2
    18    9   11 am
    19   11   12 1
    20   11   20 1
    21   12   17 ar
    22   12   13 ar
    23   13   14 ar
    24   13   47 1
    25   14   15 ar
    26   14   48 1
    27   15   16 ar
    28   15   49 1
    29   16   17 ar
    30   16   50 1
    31   17   18 1
    32   18   19 1
    33   19   51 1
    34   19   52 1
    35   19   53 1
    36   20   25 ar
    37   20   21 ar
    38   21   22 ar
    39   21   54 1
    40   22   23 ar
    41   22   55 1
    42   23   24 ar
    43   24   25 ar
    44   24   26 1
    45   26   27 1
    46   26   56 1
    47   27   32 ar
    48   27   28 ar
    49   28   29 ar
    50   28   57 1
    51   29   30 ar
    52   29   58 1
    53   30   31 ar
    54   30   33 1
    55   31   32 ar
    56   31   59 1
    57   32   60 1
    58   33   38 1
    59   33   34 1
    60   34   35 1
    61   34   61 1
    62   34   62 1
    63   35   36 1
    64   35   63 1
    65   35   64 1
    66   36   37 1
    67   36   39 1
    68   36   75 1
    69   37   38 1
    70   37   65 1
    71   37   66 1
    72   38   67 1
    73   38   68 1
    74   39   69 1
    75   39   70 1
    76   39   71 1
    77   40   72 1
    78   40   73 1
    79   40   74 1
@<TRIPOS>MOLECULE
CHEMBL211460__1
   74    78     0     0     0
SMALL
USER_CHARGES

@<TRIPOS>ATOM
      1 C1         -0.1807   -2.4445    1.8568 C.3       1 <0>        -0.1119
      2 C2          0.7522   -2.6049    3.0293 C.ar      1 <0>        -0.0751
      3 C3          1.3182   -3.8359    3.2990 C.ar      1 <0>        -0.1167
      4 C4          2.1743   -3.9838    4.3746 C.ar      1 <0>        -0.1013
      5 C5          2.4665   -2.9005    5.1826 C.ar      1 <0>        -0.1167
      6 C6          1.9031   -1.6675    4.9172 C.ar      1 <0>        -0.0729
      7 C7          1.0479   -1.5153    3.8354 C.ar      1 <0>         0.0924
      8 O1          0.4963   -0.3018    3.5691 O.3       1 <0>        -0.2844
      9 C8         -0.6843   -0.0040    4.1445 C.2       1 <0>         0.6670
     10 O2         -1.2238   -0.8097    4.8766 O.2       1 <0>        -0.5315
     11 N1         -1.2675    1.1879    3.9082 N.am      1 <0>        -0.4896
     12 C9         -0.5970    2.1587    3.1493 C.ar      1 <0>         0.0806
     13 C10        -0.7640    2.2029    1.7730 C.ar      1 <0>        -0.0600
     14 C11        -0.1024    3.1601    1.0274 C.ar      1 <0>        -0.1508
     15 C12         0.7270    4.0748    1.6498 C.ar      1 <0>        -0.0617
     16 C13         0.8987    4.0366    3.0210 C.ar      1 <0>        -0.2067
     17 C14         0.2337    3.0841    3.7764 C.ar      1 <0>         0.1520
     18 O3          0.3965    3.0493    5.1259 O.3       1 <0>        -0.2952
     19 C15         1.2635    4.0293    5.7003 C.3       1 <0>         0.0254
     20 C16        -2.5343    1.4555    4.4170 C.ar      1 <0>         0.4600
     21 C17        -3.6758    1.0605    3.7180 C.ar      1 <0>        -0.2621
     22 C18        -4.9137    1.3468    4.2613 C.ar      1 <0>         0.2004
     23 N2         -4.9807    1.9831    5.4212 N.ar      1 <0>        -0.5484
     24 C19        -3.8798    2.3462    6.0629 C.ar      1 <0>         0.5776
     25 N3         -2.6749    2.0858    5.5779 N.ar      1 <0>        -0.5498
     26 N4         -3.9916    3.0098    7.2732 N.pl3     1 <0>        -0.6314
     27 C20        -5.2514    3.1924    7.8582 C.ar      1 <0>         0.1026
     28 C21        -6.2388    2.2298    7.6950 C.ar      1 <0>        -0.0603
     29 C22        -7.4804    2.4097    8.2716 C.ar      1 <0>        -0.1792
     30 C23        -7.7417    3.5534    9.0147 C.ar      1 <0>         0.2076
     31 C24        -6.7542    4.5160    9.1779 C.ar      1 <0>        -0.1794
     32 C25        -5.5108    4.3333    8.6061 C.ar      1 <0>        -0.0946
     33 N5         -9.0004    3.7360    9.5988 N.pl3     1 <0>        -0.6322
     34 C26        -9.3416    4.9948   10.2787 C.3       1 <0>         0.1270
     35 C27       -10.6742    5.5044    9.7194 C.3       1 <0>         0.0385
     36 N6        -11.6854    4.4447    9.8302 N.3       1 <0>        -0.5426
     37 C28       -11.3229    3.2753    9.0184 C.3       1 <0>         0.0382
     38 C29       -10.0191    2.6766    9.5437 C.3       1 <0>         0.1260
     39 C30       -13.0166    4.9470    9.4648 C.3       1 <0>         0.0244
     40 C31         2.2212   -0.4874    5.7988 C.3       1 <0>        -0.1128
     41 H1          0.3932   -2.1756    0.9700 H         1 <0>         0.0787
     42 H2         -0.7057   -3.3830    1.6791 H         1 <0>         0.0734
     43 H3         -0.9044   -1.6586    2.0732 H         1 <0>         0.0593
     44 H4          1.0915   -4.6836    2.6693 H         1 <0>         0.1319
     45 H5          2.6152   -4.9472    4.5842 H         1 <0>         0.1304
     46 H6          3.1355   -3.0186    6.0222 H         1 <0>         0.1313
     47 H7         -1.4106    1.4892    1.2842 H         1 <0>         0.1349
     48 H8         -0.2333    3.1935   -0.0441 H         1 <0>         0.1341
     49 H9          1.2423    4.8209    1.0631 H         1 <0>         0.1321
     50 H10         1.5475    4.7522    3.5040 H         1 <0>         0.1357
     51 H11         1.3043    3.8898    6.7805 H         1 <0>         0.1019
     52 H12         2.2639    3.9195    5.2817 H         1 <0>         0.0568
     53 H13         0.8835    5.0262    5.4767 H         1 <0>         0.0565
     54 H14        -3.5936    0.5431    2.7735 H         1 <0>         0.1480
     55 H15        -5.8168    1.0553    3.7457 H         1 <0>         0.1785
     56 H16        -3.1976    3.3481    7.7159 H         1 <0>         0.4212
     57 H17        -6.0357    1.3405    7.1168 H         1 <0>         0.1338
     58 H18        -8.2485    1.6612    8.1443 H         1 <0>         0.1245
     59 H19        -6.9575    5.4056    9.7556 H         1 <0>         0.1253
     60 H20        -4.7413    5.0799    8.7367 H         1 <0>         0.1227
     61 H21        -9.4378    4.8179   11.3499 H         1 <0>         0.0692
     62 H22        -8.5611    5.7333   10.0953 H         1 <0>         0.0858
     63 H23       -10.9974    6.3765   10.2878 H         1 <0>         0.0852
     64 H24       -10.5480    5.7787    8.6721 H         1 <0>         0.0383
     65 H25       -12.1167    2.5307    9.0784 H         1 <0>         0.0857
     66 H26       -11.1877    3.5806    7.9808 H         1 <0>         0.0382
     67 H27        -9.6863    1.8831    8.8745 H         1 <0>         0.0871
     68 H28       -10.1817    2.2726   10.5429 H         1 <0>         0.0692
     69 H29       -12.9993    5.3074    8.4363 H         1 <0>         0.0257
     70 H30       -13.7461    4.1423    9.5556 H         1 <0>         0.0702
     71 H31       -13.2922    5.7642   10.1315 H         1 <0>         0.0703
     72 H32         3.0964    0.0322    5.4086 H         1 <0>         0.0759
     73 H33         1.3708    0.1943    5.8143 H         1 <0>         0.0642
     74 H34         2.4266   -0.8352    6.8112 H         1 <0>         0.0716
@<TRIPOS>BOND
     1    1    2 1
     2    1   41 1
     3    1   42 1
     4    1   43 1
     5    2    7 ar
     6    2    3 ar
     7    3    4 ar
     8    3   44 1
     9    4    5 ar
    10    4   45 1
    11    5    6 ar
    12    5   46 1
    13    6    7 ar
    14    6   40 1
    15    7    8 1
    16    8    9 1
    17    9   10 2
    18    9   11 am
    19   11   12 1
    20   11   20 1
    21   12   17 ar
    22   12   13 ar
    23   13   14 ar
    24   13   47 1
    25   14   15 ar
    26   14   48 1
    27   15   16 ar
    28   15   49 1
    29   16   17 ar
    30   16   50 1
    31   17   18 1
    32   18   19 1
    33   19   51 1
    34   19   52 1
    35   19   53 1
    36   20   25 ar
    37   20   21 ar
    38   21   22 ar
    39   21   54 1
    40   22   23 ar
    41   22   55 1
    42   23   24 ar
    43   24   25 ar
    44   24   26 1
    45   26   27 1
    46   26   56 1
    47   27   32 ar
    48   27   28 ar
    49   28   29 ar
    50   28   57 1
    51   29   30 ar
    52   29   58 1
    53   30   31 ar
    54   30   33 1
    55   31   32 ar
    56   31   59 1
    57   32   60 1
    58   33   38 1
    59   33   34 1
    60   34   35 1
    61   34   61 1
    62   34   62 1
    63   35   36 1
    64   35   63 1
    65   35   64 1
    66   36   37 1
    67   36   39 1
    68   37   38 1
    69   37   65 1
    70   37   66 1
    71   38   67 1
    72   38   68 1
    73   39   69 1
    74   39   70 1
    75   39   71 1
    76   40   72 1
    77   40   73 1
    78   40   74 1
@<TRIPOS>MOLECULE
CHEMBL539
    7     6     0     0     0
SMALL
USER_CHARGES

@<TRIPOS>ATOM
      1 C1         -0.0184    1.5028    0.0103 C.3       1 <0>        -0.2118
      2 C2          0.0021   -0.0041    0.0020 C.2       1 <0>         0.4822
      3 O1          0.0204   -0.6193    1.0545 O.co2     1 <0>        -0.7082
      4 O2          0.0003   -0.6079   -1.0571 O.co2     1 <0>        -0.7081
      5 H1          1.0042    1.8801    0.0026 H         1 <0>         0.0513
      6 H2         -0.5455    1.8639   -0.8728 H         1 <0>         0.0474
      7 H3         -0.5286    1.8543    0.9071 H         1 <0>         0.0474
@<TRIPOS>BOND
     1    1    2 1
     2    1    5 1
     3    1    6 1
     4    1    7 1
     5    2    3 2
     6    2    4 1
@<TRIPOS>MOLECULE
CHEMBL68398
   46    49     0     0     0
SMALL
USER_CHARGES

@<TRIPOS>ATOM
      1 C1         -2.3214    0.0994    0.8118 C.3       1 <0>        -0.1147
      2 C2         -1.1016   -0.6762    0.3859 C.ar      1 <0>        -0.0627
      3 C3         -1.0990   -1.3545   -0.8177 C.ar      1 <0>        -0.1116
      4 C4          0.0194   -2.0665   -1.2097 C.ar      1 <0>        -0.0948
      5 C5          1.1395   -2.1026   -0.3991 C.ar      1 <0>        -0.1130
      6 C6          1.1439   -1.4261    0.8058 C.ar      1 <0>        -0.0213
      7 C7          0.0226   -0.7051    1.2000 C.ar      1 <0>         0.1388
      8 N1          0.0251   -0.0145    2.4167 N.am      1 <0>        -0.6791
      9 C8         -0.3549   -0.6410    3.5479 C.2       1 <0>         0.5730
     10 O1         -0.6122   -1.8294    3.5278 O.2       1 <0>        -0.5124
     11 C9         -0.4587    0.1146    4.8100 C.ar      1 <0>        -0.1288
     12 C10        -0.1701    1.4863    4.8440 C.ar      1 <0>        -0.0706
     13 C11        -0.2590    2.2000    5.9930 C.ar      1 <0>        -0.0725
     14 C12        -0.6487    1.5837    7.2083 C.ar      1 <0>         0.1394
     15 C13        -0.9349    0.1976    7.1485 C.ar      1 <0>        -0.1679
     16 C14        -0.8521   -0.5251    5.9901 C.ar      1 <0>         0.0134
     17 S1         -1.3695   -0.1718    8.8313 S.3       1 <0>         0.0287
     18 C15        -1.1520    1.4772    9.4855 C.2       1 <0>         0.3841
     19 N2         -0.7816    2.1540    8.4214 N.2       1 <0>        -0.5152
     20 N3         -1.3285    1.9268   10.7822 N.am      1 <0>        -0.6157
     21 C16        -1.1121    3.2231   11.0814 C.2       1 <0>         0.4919
     22 O2         -0.7627    3.9953   10.2141 O.2       1 <0>        -0.4407
     23 C17        -1.3044    3.7127   12.4936 C.3       1 <0>         0.0748
     24 C18        -2.7921    3.5978   12.8897 C.3       1 <0>        -0.1515
     25 C19        -3.0162    4.8976   13.7097 C.3       1 <0>        -0.1538
     26 C20        -2.0783    5.8806   12.9647 C.3       1 <0>         0.0449
     27 O3         -0.9382    5.0946   12.5828 O.3       1 <0>        -0.3474
     28 Cl1         2.5499   -1.4716    1.8231 Cl        1 <0>        -0.0569
     29 H1         -2.2503    1.1215    0.4398 H         1 <0>         0.0772
     30 H2         -3.2142   -0.3745    0.4037 H         1 <0>         0.0737
     31 H3         -2.3822    0.1123    1.9000 H         1 <0>         0.0674
     32 H4         -1.9719   -1.3288   -1.4531 H         1 <0>         0.1347
     33 H5          0.0184   -2.5960   -2.1510 H         1 <0>         0.1368
     34 H6          2.0112   -2.6603   -0.7079 H         1 <0>         0.1382
     35 H7          0.3003    0.9151    2.4462 H         1 <0>         0.4105
     36 H8          0.1300    1.9853    3.9344 H         1 <0>         0.1369
     37 H9         -0.0288    3.2551    5.9822 H         1 <0>         0.1425
     38 H10        -1.0838   -1.5799    5.9876 H         1 <0>         0.1487
     39 H11        -1.6080    1.3091   11.4759 H         1 <0>         0.4308
     40 H12        -0.6920    3.1231   13.1758 H         1 <0>         0.1186
     41 H13        -3.4290    3.5824   12.0053 H         1 <0>         0.0846
     42 H14        -2.9621    2.7157   13.5070 H         1 <0>         0.0992
     43 H15        -4.0543    5.2248   13.6514 H         1 <0>         0.0916
     44 H16        -2.7050    4.7669   14.7461 H         1 <0>         0.0870
     45 H17        -2.5749    6.2811   12.0810 H         1 <0>         0.0666
     46 H18        -1.7745    6.6901   13.6285 H         1 <0>         0.0968
@<TRIPOS>BOND
     1    1    2 1
     2    1   29 1
     3    1   30 1
     4    1   31 1
     5    2    7 ar
     6    2    3 ar
     7    3    4 ar
     8    3   32 1
     9    4    5 ar
    10    4   33 1
    11    5    6 ar
    12    5   34 1
    13    6    7 ar
    14    6   28 1
    15    7    8 1
    16    8    9 am
    17    8   35 1
    18    9   10 2
    19    9   11 1
    20   11   16 ar
    21   11   12 ar
    22   12   13 ar
    23   12   36 1
    24   13   14 ar
    25   13   37 1
    26   14   19 1
    27   14   15 ar
    28   15   16 ar
    29   15   17 1
    30   16   38 1
    31   17   18 1
    32   18   19 2
    33   18   20 1
    34   20   21 am
    35   20   39 1
    36   21   22 2
    37   21   23 1
    38   23   27 1
    39   23   24 1
    40   23   40 1
    41   24   25 1
    42   24   41 1
    43   24   42 1
    44   25   26 1
    45   25   43 1
    46   25   44 1
    47   26   27 1
    48   26   45 1
    49   26   46 1
@<TRIPOS>MOLECULE
CHEMBL68398__1
   46    49     0     0     0
SMALL
USER_CHARGES

@<TRIPOS>ATOM
      1 C1         -2.3214    0.0994    0.8118 C.3       1 <0>        -0.1148
      2 C2         -1.1016   -0.6762    0.3859 C.ar      1 <0>        -0.0625
      3 C3         -1.0990   -1.3545   -0.8177 C.ar      1 <0>        -0.1115
      4 C4          0.0194   -2.0665   -1.2097 C.ar      1 <0>        -0.0948
      5 C5          1.1395   -2.1026   -0.3991 C.ar      1 <0>        -0.1131
      6 C6          1.1439   -1.4261    0.8058 C.ar      1 <0>        -0.0212
      7 C7          0.0226   -0.7051    1.2000 C.ar      1 <0>         0.1387
      8 N1          0.0251   -0.0145    2.4167 N.am      1 <0>        -0.6791
      9 C8         -0.3549   -0.6410    3.5479 C.2       1 <0>         0.5729
     10 O1         -0.6122   -1.8294    3.5278 O.2       1 <0>        -0.5124
     11 C9         -0.4587    0.1146    4.8100 C.ar      1 <0>        -0.1284
     12 C10        -0.1701    1.4863    4.8440 C.ar      1 <0>        -0.0707
     13 C11        -0.2590    2.2000    5.9930 C.ar      1 <0>        -0.0720
     14 C12        -0.6487    1.5837    7.2083 C.ar      1 <0>         0.1392
     15 C13        -0.9349    0.1976    7.1485 C.ar      1 <0>        -0.1678
     16 C14        -0.8521   -0.5251    5.9901 C.ar      1 <0>         0.0132
     17 S1         -1.3695   -0.1718    8.8313 S.3       1 <0>         0.0307
     18 C15        -1.1520    1.4772    9.4855 C.2       1 <0>         0.3841
     19 N2         -0.7816    2.1540    8.4214 N.2       1 <0>        -0.5145
     20 N3         -1.3285    1.9268   10.7822 N.am      1 <0>        -0.6150
     21 C16        -1.1121    3.2231   11.0814 C.2       1 <0>         0.5050
     22 O2         -0.7627    3.9953   10.2141 O.2       1 <0>        -0.4375
     23 C17        -1.3044    3.7127   12.4936 C.3       1 <0>         0.0733
     24 C18        -0.2266    3.1037   13.4254 C.3       1 <0>        -0.1504
     25 C19        -0.1848    4.1635   14.5599 C.3       1 <0>        -0.1532
     26 C20        -0.4527    5.4759   13.7922 C.3       1 <0>         0.0469
     27 O3         -1.0995    5.1329   12.5611 O.3       1 <0>        -0.3516
     28 Cl1         2.5499   -1.4716    1.8231 Cl        1 <0>        -0.0571
     29 H1         -2.2503    1.1215    0.4398 H         1 <0>         0.0773
     30 H2         -3.2142   -0.3745    0.4037 H         1 <0>         0.0737
     31 H3         -2.3822    0.1123    1.9000 H         1 <0>         0.0674
     32 H4         -1.9719   -1.3288   -1.4531 H         1 <0>         0.1348
     33 H5          0.0184   -2.5960   -2.1510 H         1 <0>         0.1368
     34 H6          2.0112   -2.6603   -0.7079 H         1 <0>         0.1381
     35 H7          0.3003    0.9151    2.4462 H         1 <0>         0.4106
     36 H8          0.1300    1.9853    3.9344 H         1 <0>         0.1369
     37 H9         -0.0288    3.2551    5.9822 H         1 <0>         0.1427
     38 H10        -1.0838   -1.5799    5.9876 H         1 <0>         0.1488
     39 H11        -1.6080    1.3091   11.4759 H         1 <0>         0.4312
     40 H12        -2.3025    3.4572   12.8493 H         1 <0>         0.1086
     41 H13        -0.5407    2.1321   13.8068 H         1 <0>         0.0975
     42 H14         0.7358    3.0323   12.9188 H         1 <0>         0.0877
     43 H15        -0.9683    3.9768   15.2943 H         1 <0>         0.0851
     44 H16         0.7962    4.1851   15.0345 H         1 <0>         0.0909
     45 H17        -1.1009    6.1237   14.3824 H         1 <0>         0.0788
     46 H18         0.4900    5.9827   13.5860 H         1 <0>         0.0766
@<TRIPOS>BOND
     1    1    2 1
     2    1   29 1
     3    1   30 1
     4    1   31 1
     5    2    7 ar
     6    2    3 ar
     7    3    4 ar
     8    3   32 1
     9    4    5 ar
    10    4   33 1
    11    5    6 ar
    12    5   34 1
    13    6    7 ar
    14    6   28 1
    15    7    8 1
    16    8    9 am
    17    8   35 1
    18    9   10 2
    19    9   11 1
    20   11   16 ar
    21   11   12 ar
    22   12   13 ar
    23   12   36 1
    24   13   14 ar
    25   13   37 1
    26   14   19 1
    27   14   15 ar
    28   15   16 ar
    29   15   17 1
    30   16   38 1
    31   17   18 1
    32   18   19 2
    33   18   20 1
    34   20   21 am
    35   20   39 1
    36   21   22 2
    37   21   23 1
    38   23   27 1
    39   23   24 1
    40   23   40 1
    41   24   25 1
    42   24   41 1
    43   24   42 1
    44   25   26 1
    45   25   43 1
    46   25   44 1
    47   26   27 1
    48   26   45 1
    49   26   46 1
@<TRIPOS>MOLECULE
CHEMBL408070
   74    78     0     0     0
SMALL
USER_CHARGES

@<TRIPOS>ATOM
      1 C1          1.9902    1.2566    0.1218 C.3       1 <0>        -0.1382
      2 C2          1.3090   -0.0846    0.0297 C.ar      1 <0>         0.0182
      3 C3          1.2064   -0.7229   -1.1906 C.ar      1 <0>        -0.1328
      4 C4          0.5840   -1.9516   -1.2838 C.ar      1 <0>        -0.0472
      5 C5          0.0533   -2.5577   -0.1422 C.ar      1 <0>        -0.1535
      6 C6          0.1537   -1.9195    1.0920 C.ar      1 <0>        -0.0156
      7 C7          0.7879   -0.6819    1.1798 C.ar      1 <0>        -0.1533
      8 C8          0.9037    0.0002    2.4863 C.2       1 <0>         0.5665
      9 O1          1.3863    1.1142    2.5497 O.2       1 <0>        -0.5071
     10 N1          0.4740   -0.6129    3.6070 N.am      1 <0>        -0.6547
     11 C9          0.4794    0.0749    4.8279 C.ar      1 <0>        -0.0028
     12 C10         0.3743    1.4625    4.8645 C.ar      1 <0>         0.1937
     13 N2          0.3824    2.0776    6.0353 N.ar      1 <0>        -0.5367
     14 C11         0.4887    1.3899    7.1624 C.ar      1 <0>         0.5382
     15 N3          0.5909    0.0693    7.1657 N.ar      1 <0>        -0.5369
     16 C12         0.5840   -0.6136    6.0331 C.ar      1 <0>         0.1658
     17 N4          0.4935    2.0706    8.3707 N.pl3     1 <0>        -0.6389
     18 C13         0.7248    1.3759    9.5649 C.ar      1 <0>         0.1384
     19 C14         1.6028    0.3002    9.5836 C.ar      1 <0>        -0.0678
     20 C15         1.8312   -0.3842   10.7608 C.ar      1 <0>        -0.1619
     21 C16         1.1828    0.0031   11.9262 C.ar      1 <0>         0.1758
     22 C17         0.3047    1.0789   11.9075 C.ar      1 <0>        -0.1606
     23 C18         0.0805    1.7666   10.7314 C.ar      1 <0>        -0.1019
     24 N5          1.4138   -0.6909   13.1194 N.pl3     1 <0>        -0.6457
     25 C19         0.6440   -0.3833   14.3346 C.3       1 <0>         0.1009
     26 C20         0.0904   -1.6939   14.9036 C.3       1 <0>        -0.0233
     27 N6          1.1929   -2.6418   15.1084 N.4       1 <0>        -0.3836
     28 C21         1.7951   -2.9951   13.8166 C.3       1 <0>        -0.0232
     29 C22         2.4292   -1.7529   13.1923 C.3       1 <0>         0.0995
     30 C23         0.6785   -3.8562   15.7553 C.3       1 <0>        -0.0470
     31 C24        -0.6137   -3.8730   -0.2440 C.2       1 <0>         0.5636
     32 O2         -1.0750   -4.3991    0.7501 O.2       1 <0>        -0.5118
     33 N7         -0.7105   -4.4889   -1.4389 N.am      1 <0>        -0.6684
     34 C25        -1.4383   -5.6772   -1.5562 C.ar      1 <0>         0.1443
     35 C26        -1.0201   -6.6655   -2.4383 C.ar      1 <0>        -0.1101
     36 C27        -1.7411   -7.8377   -2.5517 C.ar      1 <0>        -0.0971
     37 C28        -2.8785   -8.0284   -1.7883 C.ar      1 <0>        -0.0846
     38 C29        -3.2975   -7.0468   -0.9093 C.ar      1 <0>        -0.1629
     39 C30        -2.5776   -5.8743   -0.7869 C.ar      1 <0>        -0.0712
     40 C31        -4.5374   -7.2589   -0.0795 C.3       1 <0>         0.5093
     41 F1         -5.0853   -8.5125   -0.3718 F         1 <0>        -0.1747
     42 F2         -4.2054   -7.2002    1.2783 F         1 <0>        -0.1740
     43 F3         -5.4724   -6.2610   -0.3745 F         1 <0>        -0.1753
     44 H1          3.0220    1.1186    0.4449 H         1 <0>         0.0828
     45 H2          1.9769    1.7387   -0.8557 H         1 <0>         0.0681
     46 H3          1.4643    1.8824    0.8428 H         1 <0>         0.1073
     47 H4          1.6146   -0.2585   -2.0761 H         1 <0>         0.1442
     48 H5          0.5068   -2.4453   -2.2412 H         1 <0>         0.1349
     49 H6         -0.2552   -2.3835    1.9774 H         1 <0>         0.1411
     50 H7          0.1611   -1.5302    3.5684 H         1 <0>         0.4151
     51 H8          0.2877    2.0291    3.9492 H         1 <0>         0.1884
     52 H9          0.6628   -1.6907    6.0430 H         1 <0>         0.1735
     53 H10         0.3368    3.0276    8.3889 H         1 <0>         0.4258
     54 H11         2.1068   -0.0012    8.6772 H         1 <0>         0.1371
     55 H12         2.5137   -1.2211   10.7753 H         1 <0>         0.1244
     56 H13        -0.1996    1.3802   12.8138 H         1 <0>         0.1262
     57 H14        -0.5990    2.6060   10.7178 H         1 <0>         0.1310
     58 H15         1.2944    0.0896   15.0704 H         1 <0>         0.0864
     59 H16        -0.1803    0.2854   14.0866 H         1 <0>         0.1257
     60 H17        -0.4016   -1.4974   15.8562 H         1 <0>         0.1401
     61 H18        -0.6290   -2.1189   14.2037 H         1 <0>         0.1322
     62 H19         2.5592   -3.7575   13.9682 H         1 <0>         0.1404
     63 H20         1.0241   -3.3807   13.1495 H         1 <0>         0.1322
     64 H21         2.7847   -1.9892   12.1893 H         1 <0>         0.1265
     65 H22         3.2630   -1.4206   13.8107 H         1 <0>         0.0862
     66 H23        -0.0806   -4.3126   15.1200 H         1 <0>         0.1214
     67 H24         1.4960   -4.5608   15.9079 H         1 <0>         0.1248
     68 H25         0.2383   -3.5964   16.7180 H         1 <0>         0.1248
     69 H26        -0.2752   -4.1079   -2.2175 H         1 <0>         0.4148
     70 H27        -0.1322   -6.5170   -3.0350 H         1 <0>         0.1383
     71 H28        -1.4167   -8.6063   -3.2376 H         1 <0>         0.1433
     72 H29        -3.4408   -8.9460   -1.8791 H         1 <0>         0.1428
     73 H30        -2.9029   -5.1097   -0.0969 H         1 <0>         0.1443
     74 H31         1.8927   -2.2193   15.6999 H         1 <0>         0.4245
@<TRIPOS>BOND
     1    1    2 1
     2    1   44 1
     3    1   45 1
     4    1   46 1
     5    2    7 ar
     6    2    3 ar
     7    3    4 ar
     8    3   47 1
     9    4    5 ar
    10    4   48 1
    11    5    6 ar
    12    5   31 1
    13    6    7 ar
    14    6   49 1
    15    7    8 1
    16    8    9 2
    17    8   10 am
    18   10   11 1
    19   10   50 1
    20   11   16 ar
    21   11   12 ar
    22   12   13 ar
    23   12   51 1
    24   13   14 ar
    25   14   15 ar
    26   14   17 1
    27   15   16 ar
    28   16   52 1
    29   17   18 1
    30   17   53 1
    31   18   23 ar
    32   18   19 ar
    33   19   20 ar
    34   19   54 1
    35   20   21 ar
    36   20   55 1
    37   21   22 ar
    38   21   24 1
    39   22   23 ar
    40   22   56 1
    41   23   57 1
    42   24   29 1
    43   24   25 1
    44   25   26 1
    45   25   58 1
    46   25   59 1
    47   26   27 1
    48   26   60 1
    49   26   61 1
    50   27   28 1
    51   27   30 1
    52   27   74 1
    53   28   29 1
    54   28   62 1
    55   28   63 1
    56   29   64 1
    57   29   65 1
    58   30   66 1
    59   30   67 1
    60   30   68 1
    61   31   32 2
    62   31   33 am
    63   33   34 1
    64   33   69 1
    65   34   39 ar
    66   34   35 ar
    67   35   36 ar
    68   35   70 1
    69   36   37 ar
    70   36   71 1
    71   37   38 ar
    72   37   72 1
    73   38   39 ar
    74   38   40 1
    75   39   73 1
    76   40   41 1
    77   40   42 1
    78   40   43 1
@<TRIPOS>MOLECULE
CHEMBL408070__1
   73    77     0     0     0
SMALL
USER_CHARGES

@<TRIPOS>ATOM
      1 C1          1.9865    1.2584    0.1249 C.3       1 <0>        -0.1377
      2 C2          1.3050   -0.0826    0.0340 C.ar      1 <0>         0.0171
      3 C3          1.2014   -0.7215   -1.1859 C.ar      1 <0>        -0.1340
      4 C4          0.5786   -1.9502   -1.2779 C.ar      1 <0>        -0.0496
      5 C5          0.0487   -2.5556   -0.1357 C.ar      1 <0>        -0.1540
      6 C6          0.1502   -1.9168    1.0982 C.ar      1 <0>        -0.0154
      7 C7          0.7847   -0.6793    1.1848 C.ar      1 <0>        -0.1499
      8 C8          0.9015    0.0035    2.4908 C.2       1 <0>         0.5641
      9 O1          1.3845    1.1174    2.5533 O.2       1 <0>        -0.5096
     10 N1          0.4726   -0.6089    3.6122 N.am      1 <0>        -0.6517
     11 C9          0.4790    0.0795    4.8327 C.ar      1 <0>        -0.0174
     12 C10         0.3743    1.4670    4.8688 C.ar      1 <0>         0.1937
     13 N2          0.3833    2.0828    6.0392 N.ar      1 <0>        -0.5440
     14 C11         0.4904    1.3957    7.1665 C.ar      1 <0>         0.5445
     15 N3          0.5924    0.0750    7.1705 N.ar      1 <0>        -0.5333
     16 C12         0.5845   -0.6085    6.0383 C.ar      1 <0>         0.1707
     17 N4          0.4962    2.0769    8.3745 N.pl3     1 <0>        -0.6335
     18 C13         0.7283    1.3829    9.5689 C.ar      1 <0>         0.1026
     19 C14         1.6061    0.3070    9.5875 C.ar      1 <0>        -0.0608
     20 C15         1.8352   -0.3769   10.7649 C.ar      1 <0>        -0.1798
     21 C16         1.1877    0.0112   11.9306 C.ar      1 <0>         0.2076
     22 C17         0.3099    1.0872   11.9120 C.ar      1 <0>        -0.1792
     23 C18         0.0848    1.7743   10.7356 C.ar      1 <0>        -0.0942
     24 N5          1.4196   -0.6822   13.1239 N.pl3     1 <0>        -0.6322
     25 C19         0.6495   -0.3733   14.3384 C.3       1 <0>         0.1269
     26 C20         0.0797   -1.6807   14.8991 C.3       1 <0>         0.0383
     27 N6          1.1706   -2.6469   15.0843 N.3       1 <0>        -0.5426
     28 C21         1.7995   -2.9927   13.8026 C.3       1 <0>         0.0380
     29 C22         2.4355   -1.7433   13.1953 C.3       1 <0>         0.1261
     30 C23         0.6953   -3.8507   15.7793 C.3       1 <0>         0.0243
     31 C24        -0.6187   -3.8709   -0.2363 C.2       1 <0>         0.5632
     32 O2         -1.0793   -4.3964    0.7584 O.2       1 <0>        -0.5094
     33 N7         -0.7164   -4.4873   -1.4308 N.am      1 <0>        -0.6694
     34 C25        -1.4446   -5.6756   -1.5469 C.ar      1 <0>         0.1459
     35 C26        -1.0272   -6.6644   -2.4288 C.ar      1 <0>        -0.1111
     36 C27        -1.7485   -7.8365   -2.5411 C.ar      1 <0>        -0.0978
     37 C28        -2.8854   -8.0267   -1.7767 C.ar      1 <0>        -0.0857
     38 C29        -3.3035   -7.0445   -0.8980 C.ar      1 <0>        -0.1622
     39 C30        -2.5833   -5.8720   -0.7767 C.ar      1 <0>        -0.0712
     40 C31        -4.5428   -7.2559   -0.0670 C.3       1 <0>         0.5090
     41 F1         -5.0912   -8.5096   -0.3583 F         1 <0>        -0.1755
     42 F2         -4.2098   -7.1966    1.2905 F         1 <0>        -0.1725
     43 F3         -5.4778   -6.2580   -0.3619 F         1 <0>        -0.1756
     44 H1          3.0186    1.1204    0.4472 H         1 <0>         0.0826
     45 H2          1.9725    1.7400   -0.8528 H         1 <0>         0.0663
     46 H3          1.4613    1.8847    0.8460 H         1 <0>         0.1082
     47 H4          1.6090   -0.2577   -2.0719 H         1 <0>         0.1427
     48 H5          0.5006   -2.4443   -2.2351 H         1 <0>         0.1335
     49 H6         -0.2581   -2.3803    1.9841 H         1 <0>         0.1420
     50 H7          0.1595   -1.5262    3.5744 H         1 <0>         0.4137
     51 H8          0.2871    2.0332    3.9532 H         1 <0>         0.1849
     52 H9          0.6630   -1.6855    6.0487 H         1 <0>         0.1715
     53 H10         0.3396    3.0341    8.3923 H         1 <0>         0.4219
     54 H11         2.1093    0.0050    8.6809 H         1 <0>         0.1300
     55 H12         2.5176   -1.2138   10.7793 H         1 <0>         0.1239
     56 H13        -0.1937    1.3890   12.8185 H         1 <0>         0.1255
     57 H14        -0.5944    2.6138   10.7221 H         1 <0>         0.1236
     58 H15         1.3028    0.0886   15.0786 H         1 <0>         0.0694
     59 H16        -0.1667    0.3057   14.0916 H         1 <0>         0.0861
     60 H17        -0.4007   -1.4863   15.8580 H         1 <0>         0.0854
     61 H18        -0.6519   -2.0875   14.2011 H         1 <0>         0.0384
     62 H19         2.5663   -3.7499   13.9663 H         1 <0>         0.0856
     63 H20         1.0439   -3.3813   13.1199 H         1 <0>         0.0382
     64 H21         2.7996   -1.9697   12.1931 H         1 <0>         0.0867
     65 H22         3.2638   -1.4156   13.8235 H         1 <0>         0.0692
     66 H23        -0.0929   -4.3218   15.1921 H         1 <0>         0.0257
     67 H24         1.5228   -4.5492   15.9033 H         1 <0>         0.0701
     68 H25         0.3034   -3.5742   16.7581 H         1 <0>         0.0705
     69 H26        -0.2817   -4.1068   -2.2100 H         1 <0>         0.4143
     70 H27        -0.1398   -6.5164   -3.0263 H         1 <0>         0.1378
     71 H28        -1.4248   -8.6055   -3.2268 H         1 <0>         0.1423
     72 H29        -3.4479   -8.9442   -1.8667 H         1 <0>         0.1422
     73 H30        -2.9079   -5.1071   -0.0868 H         1 <0>         0.1450
@<TRIPOS>BOND
     1    1    2 1
     2    1   44 1
     3    1   45 1
     4    1   46 1
     5    2    7 ar
     6    2    3 ar
     7    3    4 ar
     8    3   47 1
     9    4    5 ar
    10    4   48 1
    11    5    6 ar
    12    5   31 1
    13    6    7 ar
    14    6   49 1
    15    7    8 1
    16    8    9 2
    17    8   10 am
    18   10   11 1
    19   10   50 1
    20   11   16 ar
    21   11   12 ar
    22   12   13 ar
    23   12   51 1
    24   13   14 ar
    25   14   15 ar
    26   14   17 1
    27   15   16 ar
    28   16   52 1
    29   17   18 1
    30   17   53 1
    31   18   23 ar
    32   18   19 ar
    33   19   20 ar
    34   19   54 1
    35   20   21 ar
    36   20   55 1
    37   21   22 ar
    38   21   24 1
    39   22   23 ar
    40   22   56 1
    41   23   57 1
    42   24   29 1
    43   24   25 1
    44   25   26 1
    45   25   58 1
    46   25   59 1
    47   26   27 1
    48   26   60 1
    49   26   61 1
    50   27   28 1
    51   27   30 1
    52   28   29 1
    53   28   62 1
    54   28   63 1
    55   29   64 1
    56   29   65 1
    57   30   66 1
    58   30   67 1
    59   30   68 1
    60   31   32 2
    61   31   33 am
    62   33   34 1
    63   33   69 1
    64   34   39 ar
    65   34   35 ar
    66   35   36 ar
    67   35   70 1
    68   36   37 ar
    69   36   71 1
    70   37   38 ar
    71   37   72 1
    72   38   39 ar
    73   38   40 1
    74   39   73 1
    75   40   41 1
    76   40   42 1
    77   40   43 1
@<TRIPOS>MOLECULE
CHEMBL188666
   47    51     0     0     0
SMALL
USER_CHARGES

@<TRIPOS>ATOM
      1 C1          2.5223   -1.2134    1.7682 C.3       1 <0>        -0.1121
      2 C2          1.3227   -1.3319    0.8638 C.ar      1 <0>        -0.0575
      3 C3          1.4146   -2.0432   -0.3170 C.ar      1 <0>        -0.1123
      4 C4          0.3148   -2.1532   -1.1475 C.ar      1 <0>        -0.0953
      5 C5         -0.8814   -1.5520   -0.7998 C.ar      1 <0>        -0.1142
      6 C6         -0.9806   -0.8391    0.3797 C.ar      1 <0>        -0.0197
      7 C7          0.1224   -0.7312    1.2193 C.ar      1 <0>         0.1556
      8 N1          0.0246   -0.0151    2.4162 N.pl3     1 <0>        -0.6509
      9 C8         -0.3655   -0.6585    3.5773 C.2       1 <0>         0.4839
     10 C9         -0.4758    0.0884    4.8285 C.2       1 <0>        -0.0679
     11 C10        -0.2705    1.3983    5.1848 C.2       1 <0>         0.0425
     12 N2         -0.5306    1.5050    6.4904 N.2       1 <0>        -0.4705
     13 C11        -0.8859    0.3389    6.9691 C.2       1 <0>         0.2229
     14 N3         -0.8676   -0.5716    5.9788 N.pl3     1 <0>        -0.3640
     15 C12        -1.1468   -1.9286    5.9121 C.ar      1 <0>         0.3122
     16 C13        -1.0266   -2.6003    4.6855 C.ar      1 <0>         0.0503
     17 N4         -0.6441   -1.9440    3.5587 N.2       1 <0>        -0.5280
     18 C14        -1.3122   -3.9733    4.6323 C.ar      1 <0>        -0.0009
     19 C15        -1.7011   -4.6092    5.7931 C.ar      1 <0>        -0.2099
     20 C16        -1.7985   -3.8771    6.9746 C.ar      1 <0>         0.4461
     21 N5         -1.5246   -2.5835    7.0003 N.ar      1 <0>        -0.5446
     22 N6         -2.1909   -4.5168    8.1454 N.pl3     1 <0>        -0.6104
     23 C17        -2.4449   -3.8592    9.4402 C.3       1 <0>         0.1223
     24 C18        -3.4069   -4.8152   10.1886 C.3       1 <0>        -0.1688
     25 C19        -2.8666   -6.2034    9.7545 C.3       1 <0>         0.0923
     26 H1         -3.6551   -6.9547    9.7973 H         1 <0>         0.0833
     27 C20        -2.4274   -5.9601    8.2954 C.3       1 <0>         0.1225
     28 O1         -1.7570   -6.5908   10.5674 O.3       1 <0>        -0.5583
     29 Cl1        -2.4820   -0.0847    0.8157 Cl        1 <0>        -0.0594
     30 H2          2.5273   -2.0425    2.4757 H         1 <0>         0.0738
     31 H3          3.4328   -1.2411    1.1695 H         1 <0>         0.0714
     32 H4          2.4746   -0.2707    2.3134 H         1 <0>         0.0678
     33 H5          2.3471   -2.5136   -0.5919 H         1 <0>         0.1326
     34 H6          0.3899   -2.7096   -2.0701 H         1 <0>         0.1349
     35 H7         -1.7385   -1.6396   -1.4509 H         1 <0>         0.1360
     36 H8          0.2303    0.9327    2.4325 H         1 <0>         0.4222
     37 H9          0.0443    2.1966    4.5291 H         1 <0>         0.1870
     38 H10        -1.1512    0.1395    7.9969 H         1 <0>         0.2167
     39 H11        -1.2298   -4.5193    3.7041 H         1 <0>         0.1540
     40 H12        -1.9285   -5.6650    5.7860 H         1 <0>         0.1442
     41 H13        -1.5146   -3.7450    9.9966 H         1 <0>         0.0677
     42 H14        -2.9176   -2.8891    9.2866 H         1 <0>         0.0774
     43 H15        -3.3262   -4.6846   11.2678 H         1 <0>         0.0910
     44 H16        -4.4351   -4.6745    9.8554 H         1 <0>         0.0864
     45 H17        -3.2135   -6.2800    7.6114 H         1 <0>         0.0826
     46 H18        -1.5086   -6.5096    8.0904 H         1 <0>         0.0801
     47 H19        -1.9700   -6.6815   11.5063 H         1 <0>         0.3850
@<TRIPOS>BOND
     1    1    2 1
     2    1   30 1
     3    1   31 1
     4    1   32 1
     5    2    7 ar
     6    2    3 ar
     7    3    4 ar
     8    3   33 1
     9    4    5 ar
    10    4   34 1
    11    5    6 ar
    12    5   35 1
    13    6    7 ar
    14    6   29 1
    15    7    8 1
    16    8    9 1
    17    8   36 1
    18    9   17 2
    19    9   10 1
    20   10   14 1
    21   10   11 2
    22   11   12 1
    23   11   37 1
    24   12   13 2
    25   13   14 1
    26   13   38 1
    27   14   15 1
    28   15   21 ar
    29   15   16 ar
    30   16   17 1
    31   16   18 ar
    32   18   19 ar
    33   18   39 1
    34   19   20 ar
    35   19   40 1
    36   20   21 ar
    37   20   22 1
    38   22   27 1
    39   22   23 1
    40   23   24 1
    41   23   41 1
    42   23   42 1
    43   24   25 1
    44   24   43 1
    45   24   44 1
    46   25   26 1
    47   25   27 1
    48   25   28 1
    49   27   45 1
    50   27   46 1
    51   28   47 1
@<TRIPOS>MOLECULE
CHEMBL189238
   42    45     0     0     0
SMALL
USER_CHARGES

@<TRIPOS>ATOM
      1 C1          2.5223   -1.2134    1.7682 C.3       1 <0>        -0.1120
      2 C2          1.3227   -1.3319    0.8638 C.ar      1 <0>        -0.0576
      3 C3          1.4146   -2.0432   -0.3170 C.ar      1 <0>        -0.1124
      4 C4          0.3148   -2.1532   -1.1475 C.ar      1 <0>        -0.0952
      5 C5         -0.8814   -1.5520   -0.7998 C.ar      1 <0>        -0.1141
      6 C6         -0.9806   -0.8391    0.3797 C.ar      1 <0>        -0.0198
      7 C7          0.1224   -0.7312    1.2193 C.ar      1 <0>         0.1555
      8 N1          0.0246   -0.0151    2.4162 N.pl3     1 <0>        -0.6509
      9 C8         -0.3655   -0.6585    3.5773 C.2       1 <0>         0.4841
     10 C9         -0.4758    0.0884    4.8285 C.2       1 <0>        -0.0682
     11 C10        -0.2705    1.3983    5.1848 C.2       1 <0>         0.0427
     12 N2         -0.5306    1.5050    6.4904 N.2       1 <0>        -0.4704
     13 C11        -0.8859    0.3389    6.9691 C.2       1 <0>         0.2227
     14 N3         -0.8676   -0.5716    5.9788 N.pl3     1 <0>        -0.3641
     15 C12        -1.1468   -1.9286    5.9121 C.ar      1 <0>         0.3107
     16 C13        -1.0266   -2.6003    4.6855 C.ar      1 <0>         0.0508
     17 N4         -0.6441   -1.9440    3.5587 N.2       1 <0>        -0.5286
     18 C14        -1.3122   -3.9733    4.6323 C.ar      1 <0>        -0.0018
     19 C15        -1.7011   -4.6092    5.7931 C.ar      1 <0>        -0.2141
     20 C16        -1.7985   -3.8771    6.9746 C.ar      1 <0>         0.4233
     21 N5         -1.5246   -2.5835    7.0003 N.ar      1 <0>        -0.5443
     22 N6         -2.1909   -4.5168    8.1454 N.pl3     1 <0>        -0.6121
     23 C17        -2.3919   -5.9679    8.1553 C.3       1 <0>         0.0921
     24 C18        -2.4033   -3.7396    9.3689 C.3       1 <0>         0.0963
     25 Cl1        -2.4820   -0.0847    0.8157 Cl        1 <0>        -0.0592
     26 H1          2.5273   -2.0425    2.4757 H         1 <0>         0.0737
     27 H2          3.4328   -1.2411    1.1695 H         1 <0>         0.0714
     28 H3          2.4746   -0.2707    2.3134 H         1 <0>         0.0678
     29 H4          2.3471   -2.5136   -0.5919 H         1 <0>         0.1326
     30 H5          0.3899   -2.7096   -2.0701 H         1 <0>         0.1349
     31 H6         -1.7385   -1.6396   -1.4509 H         1 <0>         0.1360
     32 H7          0.2303    0.9327    2.4325 H         1 <0>         0.4222
     33 H8          0.0443    2.1966    4.5291 H         1 <0>         0.1870
     34 H9         -1.1512    0.1395    7.9969 H         1 <0>         0.2170
     35 H10        -1.2298   -4.5193    3.7041 H         1 <0>         0.1533
     36 H11        -1.9285   -5.6650    5.7860 H         1 <0>         0.1479
     37 H12        -1.4559   -6.4627    8.4145 H         1 <0>         0.0570
     38 H13        -3.1542   -6.2242    8.8911 H         1 <0>         0.0762
     39 H14        -2.7153   -6.2967    7.1676 H         1 <0>         0.0738
     40 H15        -3.4418   -3.4120    9.4156 H         1 <0>         0.0504
     41 H16        -2.1785   -4.3596   10.2368 H         1 <0>         0.0673
     42 H17        -1.7475   -2.8689    9.3647 H         1 <0>         0.0780
@<TRIPOS>BOND
     1    1    2 1
     2    1   26 1
     3    1   27 1
     4    1   28 1
     5    2    7 ar
     6    2    3 ar
     7    3    4 ar
     8    3   29 1
     9    4    5 ar
    10    4   30 1
    11    5    6 ar
    12    5   31 1
    13    6    7 ar
    14    6   25 1
    15    7    8 1
    16    8    9 1
    17    8   32 1
    18    9   17 2
    19    9   10 1
    20   10   14 1
    21   10   11 2
    22   11   12 1
    23   11   33 1
    24   12   13 2
    25   13   14 1
    26   13   34 1
    27   14   15 1
    28   15   21 ar
    29   15   16 ar
    30   16   17 1
    31   16   18 ar
    32   18   19 ar
    33   18   35 1
    34   19   20 ar
    35   19   36 1
    36   20   21 ar
    37   20   22 1
    38   22   23 1
    39   22   24 1
    40   23   37 1
    41   23   38 1
    42   23   39 1
    43   24   40 1
    44   24   41 1
    45   24   42 1
@<TRIPOS>MOLECULE
CHEMBL582959
   71    75     0     0     0
SMALL
USER_CHARGES

@<TRIPOS>ATOM
      1 C1         -3.7310    2.9812    3.6771 C.3       1 <0>        -0.0542
      2 N1         -4.2358    2.7524    5.0375 N.4       1 <0>        -0.3886
      3 C2         -4.4422    4.0436    5.7069 C.3       1 <0>        -0.0477
      4 C3         -5.5109    2.0259    4.9709 C.3       1 <0>        -0.0017
      5 C4         -5.2732    0.6306    4.3900 C.3       1 <0>         0.0252
      6 O1         -4.4373   -0.1178    5.2751 O.3       1 <0>        -0.3294
      7 C5         -4.1271   -1.3887    4.9043 C.ar      1 <0>         0.0934
      8 C6         -4.6131   -1.9019    3.7100 C.ar      1 <0>        -0.1714
      9 C7         -4.2892   -3.1929    3.3608 C.ar      1 <0>        -0.1046
     10 C8         -3.4824   -3.9815    4.1867 C.ar      1 <0>         0.1723
     11 C9         -2.9845   -3.4831    5.3682 C.ar      1 <0>        -0.0759
     12 C10        -3.3256   -2.1659    5.7110 C.ar      1 <0>        -0.1234
     13 C11        -2.0804   -4.1343    6.3926 C.3       1 <0>        -0.0922
     14 C12        -1.4158   -5.4103    5.9217 C.3       1 <0>         0.1274
     15 N2         -2.4100   -6.4389    5.6014 N.pl3     1 <0>        -0.3661
     16 C13        -3.2606   -6.3535    4.5947 C.2       1 <0>         0.3712
     17 C14        -4.0737   -7.4744    4.5931 C.2       1 <0>        -0.2921
     18 C15        -3.6125   -8.2906    5.7277 C.2       1 <0>         0.1782
     19 N3         -2.6205   -7.6378    6.2943 N.2       1 <0>        -0.2700
     20 C16        -4.1621   -9.6002    6.1522 C.ar      1 <0>        -0.0477
     21 C17        -5.5262   -9.8599    6.0239 C.ar      1 <0>        -0.0688
     22 C18        -6.0349  -11.0785    6.4195 C.ar      1 <0>        -0.1221
     23 C19        -5.1895  -12.0480    6.9459 C.ar      1 <0>         0.1866
     24 C20        -3.8297  -11.7915    7.0752 C.ar      1 <0>        -0.1492
     25 C21        -3.3151  -10.5767    6.6753 C.ar      1 <0>        -0.0590
     26 N4         -5.7080  -13.2833    7.3464 N.am      1 <0>        -0.6785
     27 C22        -6.7968  -13.7880    6.7330 C.2       1 <0>         0.6993
     28 O2         -7.2652  -13.2228    5.7637 O.2       1 <0>        -0.5303
     29 N5         -7.3664  -14.9191    7.1941 N.am      1 <0>        -0.6794
     30 C23        -8.4514  -15.4848    6.5127 C.ar      1 <0>         0.1773
     31 C24        -8.4264  -15.5881    5.1276 C.ar      1 <0>        -0.0276
     32 C25        -9.4990  -16.1471    4.4583 C.ar      1 <0>        -0.0901
     33 C26       -10.5960  -16.6031    5.1659 C.ar      1 <0>        -0.1032
     34 C27       -10.6245  -16.5015    6.5446 C.ar      1 <0>        -0.0896
     35 C28        -9.5527  -15.9493    7.2209 C.ar      1 <0>        -0.0482
     36 Cl1        -9.5860  -15.8297    8.9524 Cl        1 <0>        -0.0506
     37 Cl2        -7.0499  -15.0154    4.2381 Cl        1 <0>        -0.0238
     38 C29        -5.1622   -7.7821    3.6604 C.2       1 <0>         0.6102
     39 O3         -4.9316   -8.4039    2.6399 O.2       1 <0>        -0.5288
     40 N6         -6.4182   -7.3764    3.9331 N.am      1 <0>        -0.8483
     41 N7         -3.2399   -5.2806    3.7315 N.pl3     1 <0>        -0.6856
     42 H1         -2.7849    3.5202    3.7265 H         1 <0>         0.1273
     43 H2         -3.5778    2.0231    3.1804 H         1 <0>         0.1215
     44 H3         -4.4557    3.5702    3.1149 H         1 <0>         0.1247
     45 H4         -4.8982    3.8780    6.6830 H         1 <0>         0.1247
     46 H5         -3.4825    4.5443    5.8345 H         1 <0>         0.1259
     47 H6         -5.0992    4.6666    5.0999 H         1 <0>         0.1233
     48 H7         -5.9304    1.9357    5.9729 H         1 <0>         0.1424
     49 H8         -6.2068    2.5712    4.3333 H         1 <0>         0.1494
     50 H9         -6.2281    0.1185    4.2723 H         1 <0>         0.1085
     51 H10        -4.7864    0.7194    3.4188 H         1 <0>         0.0867
     52 H11        -5.2352   -1.2983    3.0657 H         1 <0>         0.1340
     53 H12        -4.6642   -3.6034    2.4349 H         1 <0>         0.1371
     54 H13        -2.9528   -1.7512    6.6358 H         1 <0>         0.1340
     55 H14        -1.3034   -3.4220    6.6702 H         1 <0>         0.1076
     56 H15        -2.6706   -4.3596    7.2809 H         1 <0>         0.0906
     57 H16        -0.8230   -5.1970    5.0322 H         1 <0>         0.0928
     58 H17        -0.7581   -5.7816    6.7076 H         1 <0>         0.1150
     59 H18        -6.1836   -9.1067    5.6153 H         1 <0>         0.1261
     60 H19        -7.0913  -11.2800    6.3206 H         1 <0>         0.1464
     61 H20        -3.1749  -12.5462    7.4852 H         1 <0>         0.1330
     62 H21        -2.2575  -10.3798    6.7713 H         1 <0>         0.1333
     63 H22        -5.2840  -13.7770    8.0657 H         1 <0>         0.4104
     64 H23        -7.0250  -15.3413    7.9979 H         1 <0>         0.4127
     65 H24        -9.4804  -16.2274    3.3815 H         1 <0>         0.1447
     66 H25       -11.4326  -17.0394    4.6405 H         1 <0>         0.1461
     67 H26       -11.4830  -16.8583    7.0941 H         1 <0>         0.1458
     68 H27        -6.6020   -6.8808    4.7464 H         1 <0>         0.4005
     69 H28        -7.1383   -7.5800    3.3160 H         1 <0>         0.4049
     70 H29        -3.0538   -5.4291    2.7912 H         1 <0>         0.4239
     71 H30        -3.5649    2.2072    5.5579 H         1 <0>         0.4338
@<TRIPOS>BOND
     1    1    2 1
     2    1   42 1
     3    1   43 1
     4    1   44 1
     5    2    3 1
     6    2    4 1
     7    2   71 1
     8    3   45 1
     9    3   46 1
    10    3   47 1
    11    4    5 1
    12    4   48 1
    13    4   49 1
    14    5    6 1
    15    5   50 1
    16    5   51 1
    17    6    7 1
    18    7   12 ar
    19    7    8 ar
    20    8    9 ar
    21    8   52 1
    22    9   10 ar
    23    9   53 1
    24   10   41 1
    25   10   11 ar
    26   11   12 ar
    27   11   13 1
    28   12   54 1
    29   13   14 1
    30   13   55 1
    31   13   56 1
    32   14   15 1
    33   14   57 1
    34   14   58 1
    35   15   19 1
    36   15   16 1
    37   16   17 2
    38   16   41 1
    39   17   18 1
    40   17   38 1
    41   18   19 2
    42   18   20 1
    43   20   25 ar
    44   20   21 ar
    45   21   22 ar
    46   21   59 1
    47   22   23 ar
    48   22   60 1
    49   23   24 ar
    50   23   26 1
    51   24   25 ar
    52   24   61 1
    53   25   62 1
    54   26   27 am
    55   26   63 1
    56   27   28 2
    57   27   29 am
    58   29   30 1
    59   29   64 1
    60   30   35 ar
    61   30   31 ar
    62   31   32 ar
    63   31   37 1
    64   32   33 ar
    65   32   65 1
    66   33   34 ar
    67   33   66 1
    68   34   35 ar
    69   34   67 1
    70   35   36 1
    71   38   39 2
    72   38   40 am
    73   40   68 1
    74   40   69 1
    75   41   70 1
@<TRIPOS>MOLECULE
CHEMBL44577
   70    75     0     0     0
SMALL
USER_CHARGES

@<TRIPOS>ATOM
      1 C1         -4.3717    0.4939   -1.5835 C.3       1 <0>        -0.0458
      2 N1         -4.0360   -0.9286   -1.4361 N.4       1 <0>        -0.3884
      3 C2         -5.1492   -1.6288   -0.7820 C.3       1 <0>        -0.0021
      4 C3         -4.8078   -3.1142   -0.6451 C.3       1 <0>         0.0200
      5 N2         -3.5800   -3.2605    0.1494 N.3       1 <0>        -0.5346
      6 C4         -2.4622   -2.5436   -0.4805 C.3       1 <0>         0.0193
      7 C5         -2.8230   -1.0629   -0.6187 C.3       1 <0>        -0.0022
      8 C6         -3.2494   -4.6775    0.3515 C.3       1 <0>         0.0858
      9 C7         -4.3972   -5.3685    1.0905 C.3       1 <0>        -0.1099
     10 C8         -4.0529   -6.8443    1.3010 C.3       1 <0>        -0.1273
     11 C9         -2.7720   -6.9560    2.1302 C.3       1 <0>         0.1734
     12 C10        -1.6242   -6.2649    1.3913 C.3       1 <0>        -0.1270
     13 C11        -1.9685   -4.7891    1.1807 C.3       1 <0>        -0.1115
     14 N3         -2.4424   -8.3691    2.3318 N.pl3     1 <0>        -0.3766
     15 C12        -2.3448   -8.9900    3.5414 C.ar      1 <0>         0.3791
     16 C13        -2.0134  -10.3339    3.2855 C.ar      1 <0>        -0.3263
     17 C14        -1.9206  -10.4678    1.8318 C.2       1 <0>         0.1732
     18 N4         -2.1848   -9.2921    1.3127 N.2       1 <0>        -0.2348
     19 C15        -1.5933  -11.7046    1.0832 C.ar      1 <0>        -0.0258
     20 C16        -0.6963  -11.6590    0.0166 C.ar      1 <0>        -0.0687
     21 C17        -0.3936  -12.8113   -0.6775 C.ar      1 <0>        -0.1165
     22 C18        -0.9814  -14.0163   -0.3156 C.ar      1 <0>         0.1043
     23 C19        -1.8754  -14.0649    0.7459 C.ar      1 <0>        -0.1249
     24 C20        -2.1775  -12.9172    1.4478 C.ar      1 <0>        -0.0978
     25 O1         -0.6814  -15.1499   -1.0017 O.3       1 <0>        -0.2584
     26 C21        -1.5874  -15.6072   -1.9053 C.ar      1 <0>         0.1175
     27 C22        -2.7105  -14.8504   -2.2075 C.ar      1 <0>        -0.1942
     28 C23        -3.6299  -15.3177   -3.1264 C.ar      1 <0>        -0.0830
     29 C24        -3.4321  -16.5386   -3.7446 C.ar      1 <0>        -0.1487
     30 C25        -2.3139  -17.2947   -3.4452 C.ar      1 <0>        -0.0810
     31 C26        -1.3882  -16.8293   -2.5316 C.ar      1 <0>        -0.1421
     32 C27        -1.8516  -11.2045    4.3754 C.ar      1 <0>         0.5204
     33 N5         -2.0193  -10.7186    5.6016 N.ar      1 <0>        -0.6021
     34 C28        -2.3303   -9.4495    5.7959 C.ar      1 <0>         0.3918
     35 N6         -2.4913   -8.5980    4.8068 N.ar      1 <0>        -0.5781
     36 N7         -1.5268  -12.5328    4.1785 N.pl3     1 <0>        -0.8256
     37 H1         -3.5462    1.0135   -2.0701 H         1 <0>         0.1241
     38 H2         -5.2718    0.5938   -2.1901 H         1 <0>         0.1240
     39 H3         -4.5461    0.9300   -0.5999 H         1 <0>         0.1232
     40 H4         -5.3162   -1.2018    0.2069 H         1 <0>         0.1380
     41 H5         -6.0518   -1.5173   -1.3829 H         1 <0>         0.1353
     42 H6         -5.6275   -3.6313   -0.1463 H         1 <0>         0.1266
     43 H7         -4.6542   -3.5447   -1.6346 H         1 <0>         0.0606
     44 H8         -1.5706   -2.6444    0.1384 H         1 <0>         0.1273
     45 H9         -2.2699   -2.9647   -1.4673 H         1 <0>         0.0606
     46 H10        -2.0008   -0.5319   -1.0986 H         1 <0>         0.1354
     47 H11        -3.0018   -0.6387    0.3693 H         1 <0>         0.1379
     48 H12        -3.0991   -5.1571   -0.6157 H         1 <0>         0.0570
     49 H13        -4.5475   -4.8889    2.0577 H         1 <0>         0.0824
     50 H14        -5.3098   -5.2890    0.4998 H         1 <0>         0.0720
     51 H15        -4.8706   -7.3366    1.8275 H         1 <0>         0.0764
     52 H16        -3.9026   -7.3239    0.3338 H         1 <0>         0.0786
     53 H17        -2.9223   -6.4764    3.0975 H         1 <0>         0.1128
     54 H18        -0.7117   -6.3445    1.9820 H         1 <0>         0.0767
     55 H19        -1.4739   -6.7445    0.4241 H         1 <0>         0.0786
     56 H20        -1.1508   -4.2968    0.6543 H         1 <0>         0.0725
     57 H21        -2.1188   -4.3095    2.1479 H         1 <0>         0.0825
     58 H22        -0.2394  -10.7220   -0.2658 H         1 <0>         0.1379
     59 H23         0.3011  -12.7767   -1.5037 H         1 <0>         0.1418
     60 H24        -2.3314  -15.0034    1.0245 H         1 <0>         0.1419
     61 H25        -2.8692  -12.9565    2.2763 H         1 <0>         0.1403
     62 H26        -2.8658  -13.8970   -1.7244 H         1 <0>         0.1264
     63 H27        -4.5042  -14.7290   -3.3620 H         1 <0>         0.1260
     64 H28        -4.1526  -16.9024   -4.4622 H         1 <0>         0.1271
     65 H29        -2.1619  -18.2482   -3.9292 H         1 <0>         0.1338
     66 H30        -0.5126  -17.4182   -2.3015 H         1 <0>         0.1344
     67 H31        -2.4576   -9.0967    6.8087 H         1 <0>         0.2069
     68 H32        -1.2421  -12.8378    3.3028 H         1 <0>         0.4138
     69 H33        -1.5835  -13.1605    4.9159 H         1 <0>         0.4135
     70 H34        -3.8741   -1.3319   -2.3467 H         1 <0>         0.4222
@<TRIPOS>BOND
     1    1    2 1
     2    1   37 1
     3    1   38 1
     4    1   39 1
     5    2    7 1
     6    2    3 1
     7    2   70 1
     8    3    4 1
     9    3   40 1
    10    3   41 1
    11    4    5 1
    12    4   42 1
    13    4   43 1
    14    5    6 1
    15    5    8 1
    16    6    7 1
    17    6   44 1
    18    6   45 1
    19    7   46 1
    20    7   47 1
    21    8   13 1
    22    8    9 1
    23    8   48 1
    24    9   10 1
    25    9   49 1
    26    9   50 1
    27   10   11 1
    28   10   51 1
    29   10   52 1
    30   11   12 1
    31   11   14 1
    32   11   53 1
    33   12   13 1
    34   12   54 1
    35   12   55 1
    36   13   56 1
    37   13   57 1
    38   14   18 1
    39   14   15 1
    40   15   35 ar
    41   15   16 ar
    42   16   17 1
    43   16   32 ar
    44   17   18 2
    45   17   19 1
    46   19   24 ar
    47   19   20 ar
    48   20   21 ar
    49   20   58 1
    50   21   22 ar
    51   21   59 1
    52   22   23 ar
    53   22   25 1
    54   23   24 ar
    55   23   60 1
    56   24   61 1
    57   25   26 1
    58   26   31 ar
    59   26   27 ar
    60   27   28 ar
    61   27   62 1
    62   28   29 ar
    63   28   63 1
    64   29   30 ar
    65   29   64 1
    66   30   31 ar
    67   30   65 1
    68   31   66 1
    69   32   33 ar
    70   32   36 1
    71   33   34 ar
    72   34   35 ar
    73   34   67 1
    74   36   68 1
    75   36   69 1
@<TRIPOS>MOLECULE
CHEMBL44577__1
   70    75     0     0     0
SMALL
USER_CHARGES

@<TRIPOS>ATOM
      1 C1         -4.2968    0.4185   -1.9236 C.3       1 <0>         0.0194
      2 N1         -3.9309   -0.9921   -1.7379 N.3       1 <0>        -0.5434
      3 C2         -5.0508   -1.7564   -1.1707 C.3       1 <0>         0.0253
      4 C3         -4.6501   -3.2282   -1.0490 C.3       1 <0>        -0.0066
      5 N2         -3.4681   -3.3442   -0.1847 N.4       1 <0>        -0.3838
      6 C4         -2.3512   -2.5961   -0.7766 C.3       1 <0>        -0.0066
      7 C5         -2.7328   -1.1190   -0.8961 C.3       1 <0>         0.0254
      8 C6         -3.0947   -4.7589   -0.0535 C.3       1 <0>         0.0237
      9 C7         -4.2572   -5.5380    0.5648 C.3       1 <0>        -0.1365
     10 C8         -3.8682   -7.0114    0.7014 C.3       1 <0>        -0.1259
     11 C9         -2.6370   -7.1326    1.6017 C.3       1 <0>         0.1710
     12 C10        -1.4745   -6.3534    0.9833 C.3       1 <0>        -0.1257
     13 C11        -1.8635   -4.8800    0.8467 C.3       1 <0>        -0.1365
     14 N3         -2.2646   -8.5434    1.7324 N.pl3     1 <0>        -0.3823
     15 C12        -2.2168   -9.2398    2.9032 C.ar      1 <0>         0.3806
     16 C13        -1.8172  -10.5509    2.5830 C.ar      1 <0>        -0.3264
     17 C14        -1.6303  -10.5841    1.1326 C.2       1 <0>         0.1830
     18 N4         -1.9087   -9.3866    0.6745 N.2       1 <0>        -0.2390
     19 C15        -1.2090  -11.7558    0.3284 C.ar      1 <0>        -0.0313
     20 C16        -0.2509  -11.6073   -0.6738 C.ar      1 <0>        -0.0674
     21 C17         0.1393  -12.6992   -1.4199 C.ar      1 <0>        -0.1167
     22 C18        -0.4213  -13.9458   -1.1745 C.ar      1 <0>         0.1077
     23 C19        -1.3760  -14.0969   -0.1776 C.ar      1 <0>        -0.1249
     24 C20        -1.7658  -13.0100    0.5762 C.ar      1 <0>        -0.0971
     25 O1         -0.0352  -15.0197   -1.9117 O.3       1 <0>        -0.2586
     26 C21        -0.8652  -15.4476   -2.8988 C.ar      1 <0>         0.1167
     27 C22        -1.9968  -14.7127   -3.2226 C.ar      1 <0>        -0.1944
     28 C23        -2.8390  -15.1500   -4.2264 C.ar      1 <0>        -0.0829
     29 C24        -2.5555  -16.3192   -4.9080 C.ar      1 <0>        -0.1478
     30 C25        -1.4285  -17.0534   -4.5873 C.ar      1 <0>        -0.0805
     31 C26        -0.5797  -16.6173   -3.5885 C.ar      1 <0>        -0.1414
     32 C27        -1.6881  -11.4861    3.6227 C.ar      1 <0>         0.5219
     33 N5         -1.9497  -11.0893    4.8645 N.ar      1 <0>        -0.6001
     34 C28        -2.3222   -9.8478    5.1199 C.ar      1 <0>         0.3949
     35 N6         -2.4559   -8.9386    4.1793 N.ar      1 <0>        -0.5811
     36 N7         -1.2994  -12.7859    3.3618 N.pl3     1 <0>        -0.8235
     37 H1         -3.4739    0.9470   -2.4048 H         1 <0>         0.0844
     38 H2         -5.1863    0.4837   -2.5501 H         1 <0>         0.0839
     39 H3         -4.5016    0.8714   -0.9535 H         1 <0>         0.0396
     40 H4         -5.2965   -1.3636   -0.1841 H         1 <0>         0.0605
     41 H5         -5.9189   -1.6687   -1.8240 H         1 <0>         0.1238
     42 H6         -5.4743   -3.7945   -0.6152 H         1 <0>         0.1373
     43 H7         -4.4176   -3.6244   -2.0374 H         1 <0>         0.1382
     44 H8         -1.4711   -2.6937   -0.1410 H         1 <0>         0.1374
     45 H9         -2.1306   -2.9956   -1.7665 H         1 <0>         0.1382
     46 H10        -1.9098   -0.5663   -1.3491 H         1 <0>         0.1239
     47 H11        -2.9403   -0.7157    0.0950 H         1 <0>         0.0605
     48 H12        -2.8664   -5.1672   -1.0380 H         1 <0>         0.1418
     49 H13        -4.4854   -5.1297    1.5493 H         1 <0>         0.0917
     50 H14        -5.1343   -5.4518   -0.0765 H         1 <0>         0.0966
     51 H15        -4.6964   -7.5665    1.1419 H         1 <0>         0.0903
     52 H16        -3.6400   -7.4198   -0.2831 H         1 <0>         0.0900
     53 H17        -2.8653   -6.7242    2.5862 H         1 <0>         0.1152
     54 H18        -0.5974   -6.4397    1.6247 H         1 <0>         0.0905
     55 H19        -1.2463   -6.7617   -0.0012 H         1 <0>         0.0900
     56 H20        -1.0353   -4.3249    0.4062 H         1 <0>         0.0968
     57 H21        -2.0917   -4.4717    1.8313 H         1 <0>         0.0917
     58 H22         0.1850  -10.6379   -0.8656 H         1 <0>         0.1379
     59 H23         0.8813  -12.5848   -2.1962 H         1 <0>         0.1428
     60 H24        -1.8107  -15.0675    0.0104 H         1 <0>         0.1427
     61 H25        -2.5049  -13.1291    1.3546 H         1 <0>         0.1401
     62 H26        -2.2191  -13.7998   -2.6900 H         1 <0>         0.1259
     63 H27        -3.7199  -14.5784   -4.4788 H         1 <0>         0.1263
     64 H28        -3.2156  -16.6597   -5.6920 H         1 <0>         0.1276
     65 H29        -1.2095  -17.9664   -5.1210 H         1 <0>         0.1343
     66 H30         0.3028  -17.1888   -3.3414 H         1 <0>         0.1347
     67 H31        -2.5251   -9.5682    6.1431 H         1 <0>         0.2080
     68 H32        -0.9497  -13.0214    2.4882 H         1 <0>         0.4146
     69 H33        -1.3762  -13.4629    4.0521 H         1 <0>         0.4147
     70 H34        -3.6799   -2.9668    0.7268 H         1 <0>         0.4186
@<TRIPOS>BOND
     1    1    2 1
     2    1   37 1
     3    1   38 1
     4    1   39 1
     5    2    7 1
     6    2    3 1
     7    3    4 1
     8    3   40 1
     9    3   41 1
    10    4    5 1
    11    4   42 1
    12    4   43 1
    13    5    6 1
    14    5    8 1
    15    5   70 1
    16    6    7 1
    17    6   44 1
    18    6   45 1
    19    7   46 1
    20    7   47 1
    21    8   13 1
    22    8    9 1
    23    8   48 1
    24    9   10 1
    25    9   49 1
    26    9   50 1
    27   10   11 1
    28   10   51 1
    29   10   52 1
    30   11   12 1
    31   11   14 1
    32   11   53 1
    33   12   13 1
    34   12   54 1
    35   12   55 1
    36   13   56 1
    37   13   57 1
    38   14   18 1
    39   14   15 1
    40   15   35 ar
    41   15   16 ar
    42   16   17 1
    43   16   32 ar
    44   17   18 2
    45   17   19 1
    46   19   24 ar
    47   19   20 ar
    48   20   21 ar
    49   20   58 1
    50   21   22 ar
    51   21   59 1
    52   22   23 ar
    53   22   25 1
    54   23   24 ar
    55   23   60 1
    56   24   61 1
    57   25   26 1
    58   26   31 ar
    59   26   27 ar
    60   27   28 ar
    61   27   62 1
    62   28   29 ar
    63   28   63 1
    64   29   30 ar
    65   29   64 1
    66   30   31 ar
    67   30   65 1
    68   31   66 1
    69   32   33 ar
    70   32   36 1
    71   33   34 ar
    72   34   35 ar
    73   34   67 1
    74   36   68 1
    75   36   69 1
@<TRIPOS>MOLECULE
CHEMBL270306
   63    67     0     0     0
SMALL
USER_CHARGES

@<TRIPOS>ATOM
      1 C1          1.5983   -1.0227    1.9107 C.3       1 <0>        -0.1601
      2 C2          2.0702    0.1815    1.0934 C.3       1 <0>         0.2014
      3 H1          1.2103    0.7896    0.8125 H         1 <0>         0.1000
      4 C3          3.0214    1.0080    1.9200 C.ar      1 <0>        -0.0956
      5 C4          4.3435    0.6238    2.0429 C.ar      1 <0>        -0.1170
      6 C5          5.2160    1.3819    2.8011 C.ar      1 <0>        -0.1146
      7 C6          4.7664    2.5246    3.4360 C.ar      1 <0>        -0.1164
      8 C7          3.4445    2.9094    3.3123 C.ar      1 <0>        -0.1132
      9 C8          2.5730    2.1535    2.5506 C.ar      1 <0>        -0.1054
     10 N1          2.7533   -0.2861   -0.1153 N.am      1 <0>        -0.7330
     11 C9          2.0398   -0.5910   -1.2174 C.2       1 <0>         0.7158
     12 O1          0.8246   -0.5674   -1.1807 O.2       1 <0>        -0.5594
     13 N2          2.6732   -0.9219   -2.3601 N.am      1 <0>        -0.5696
     14 C10         4.1400   -1.0488   -2.4095 C.3       1 <0>         0.0633
     15 C11         4.6176   -0.3975   -3.7153 C.3       1 <0>         0.0494
     16 O2          3.9824   -1.0518   -4.8161 O.3       1 <0>        -0.3044
     17 C12         2.6344   -1.2166   -4.7633 C.ar      1 <0>         0.1058
     18 C13         1.9559   -1.1643   -3.5470 C.ar      1 <0>         0.1073
     19 C14         0.5830   -1.3432   -3.5032 C.ar      1 <0>        -0.1048
     20 C15        -0.1202   -1.5782   -4.6703 C.ar      1 <0>        -0.1183
     21 C16         0.5492   -1.6343   -5.8839 C.ar      1 <0>         0.0857
     22 C17         1.9260   -1.4458   -5.9325 C.ar      1 <0>        -0.1372
     23 O3         -0.1439   -1.8645   -7.0305 O.3       1 <0>        -0.2421
     24 C18        -0.0585   -3.0968   -7.5895 C.ar      1 <0>         0.1841
     25 C19         0.7884   -4.0595   -7.0679 C.ar      1 <0>        -0.2656
     26 C20         0.8543   -5.3132   -7.6616 C.ar      1 <0>         0.1645
     27 N3          0.1319   -5.6193   -8.7140 N.ar      1 <0>        -0.4950
     28 C21        -0.7073   -4.7377   -9.2698 C.ar      1 <0>         0.1714
     29 C22        -0.8353   -3.4395   -8.7185 C.ar      1 <0>        -0.1075
     30 C23        -1.7200   -2.5187   -9.3005 C.ar      1 <0>        -0.1531
     31 C24        -2.4545   -2.8843  -10.3909 C.ar      1 <0>         0.1121
     32 C25        -2.3340   -4.1711  -10.9358 C.ar      1 <0>         0.1508
     33 C26        -1.4732   -5.0824  -10.3963 C.ar      1 <0>        -0.1800
     34 O4         -3.0763   -4.5113  -12.0220 O.3       1 <0>        -0.3002
     35 C27        -2.9105   -5.8359  -12.5320 C.3       1 <0>         0.0211
     36 O5         -3.3121   -1.9922  -10.9546 O.3       1 <0>        -0.3022
     37 C28        -3.3900   -0.6982  -10.3533 C.3       1 <0>         0.0229
     38 H2          0.9103   -1.6205    1.3129 H         1 <0>         0.0690
     39 H3          2.4582   -1.6307    2.1916 H         1 <0>         0.0590
     40 H4          1.0900   -0.6747    2.8100 H         1 <0>         0.0712
     41 H5          4.6948   -0.2690    1.5469 H         1 <0>         0.1176
     42 H6          6.2488    1.0813    2.8978 H         1 <0>         0.1250
     43 H7          5.4479    3.1165    4.0290 H         1 <0>         0.1247
     44 H8          3.0931    3.8019    3.8086 H         1 <0>         0.1264
     45 H9          1.5411    2.4562    2.4509 H         1 <0>         0.1264
     46 H10         3.7190   -0.3764   -0.1225 H         1 <0>         0.3962
     47 H11         4.5846   -0.5364   -1.5563 H         1 <0>         0.1011
     48 H12         4.4208   -2.1019   -2.3971 H         1 <0>         0.0953
     49 H13         4.3508    0.6594   -3.7152 H         1 <0>         0.0746
     50 H14         5.6990   -0.5033   -3.8020 H         1 <0>         0.1286
     51 H15         0.0623   -1.2996   -2.5580 H         1 <0>         0.1856
     52 H16        -1.1905   -1.7183   -4.6370 H         1 <0>         0.1399
     53 H17         2.4451   -1.4898   -6.8785 H         1 <0>         0.1445
     54 H18         1.3956   -3.8365   -6.2031 H         1 <0>         0.1423
     55 H19         1.5185   -6.0566   -7.2463 H         1 <0>         0.1620
     56 H20        -1.8193   -1.5258   -8.8872 H         1 <0>         0.1491
     57 H21        -1.3902   -6.0697  -10.8262 H         1 <0>         0.1536
     58 H22        -3.5590   -5.9761  -13.3968 H         1 <0>         0.1053
     59 H23        -1.8721   -5.9836  -12.8289 H         1 <0>         0.0605
     60 H24        -3.1738   -6.5583  -11.7594 H         1 <0>         0.0605
     61 H25        -4.1087   -0.0867  -10.8989 H         1 <0>         0.1044
     62 H26        -3.7111   -0.7981   -9.3165 H         1 <0>         0.0582
     63 H27        -2.4097   -0.2228  -10.3859 H         1 <0>         0.0581
@<TRIPOS>BOND
     1    1    2 1
     2    1   38 1
     3    1   39 1
     4    1   40 1
     5    2    3 1
     6    2    4 1
     7    2   10 1
     8    4    9 ar
     9    4    5 ar
    10    5    6 ar
    11    5   41 1
    12    6    7 ar
    13    6   42 1
    14    7    8 ar
    15    7   43 1
    16    8    9 ar
    17    8   44 1
    18    9   45 1
    19   10   11 am
    20   10   46 1
    21   11   12 2
    22   11   13 am
    23   13   18 1
    24   13   14 1
    25   14   15 1
    26   14   47 1
    27   14   48 1
    28   15   16 1
    29   15   49 1
    30   15   50 1
    31   16   17 1
    32   17   22 ar
    33   17   18 ar
    34   18   19 ar
    35   19   20 ar
    36   19   51 1
    37   20   21 ar
    38   20   52 1
    39   21   22 ar
    40   21   23 1
    41   22   53 1
    42   23   24 1
    43   24   29 ar
    44   24   25 ar
    45   25   26 ar
    46   25   54 1
    47   26   27 ar
    48   26   55 1
    49   27   28 ar
    50   28   33 ar
    51   28   29 ar
    52   29   30 ar
    53   30   31 ar
    54   30   56 1
    55   31   32 ar
    56   31   36 1
    57   32   33 ar
    58   32   34 1
    59   33   57 1
    60   34   35 1
    61   35   58 1
    62   35   59 1
    63   35   60 1
    64   36   37 1
    65   37   61 1
    66   37   62 1
    67   37   63 1
@<TRIPOS>MOLECULE
CHEMBL436137
   66    70     0     0     0
SMALL
USER_CHARGES

@<TRIPOS>ATOM
      1 C1          0.6297    1.6950    0.0760 C.3       1 <0>        -0.1250
      2 C2          0.3918    0.2107   -0.0306 C.ar      1 <0>        -0.0594
      3 C3          0.4364   -0.4099   -1.2624 C.ar      1 <0>        -0.1249
      4 C4          0.2181   -1.7722   -1.3617 C.ar      1 <0>        -0.1004
      5 C5         -0.0458   -2.5201   -0.2284 C.ar      1 <0>        -0.1252
      6 C6         -0.0933   -1.9100    1.0086 C.ar      1 <0>        -0.0601
      7 C7          0.1319   -0.5387    1.1154 C.ar      1 <0>        -0.0684
      8 C8          0.0892    0.1216    2.4429 C.ar      1 <0>        -0.0180
      9 C9          1.0535   -0.2014    3.4120 C.ar      1 <0>        -0.0463
     10 C10         1.0373    0.3891    4.6357 C.ar      1 <0>        -0.0741
     11 C11         0.0466    1.3359    4.9434 C.ar      1 <0>         0.1888
     12 C12        -0.9337    1.6706    3.9718 C.ar      1 <0>        -0.0192
     13 C13        -0.8959    1.0533    2.7130 C.ar      1 <0>        -0.0482
     14 N1         -1.8700    2.5747    4.2813 N.ar      1 <0>        -0.1048
     15 N2         -1.8694    3.1249    5.4469 N.ar      1 <0>        -0.2892
     16 C14        -0.9559    2.8222    6.3718 C.ar      1 <0>         0.4884
     17 N3         -0.0017    1.9388    6.1373 N.ar      1 <0>        -0.4990
     18 N4         -1.0094    3.4481    7.6051 N.pl3     1 <0>        -0.6320
     19 C15        -2.0785    4.2983    7.9129 C.ar      1 <0>         0.1447
     20 C16        -3.3655    3.9710    7.5069 C.ar      1 <0>        -0.0718
     21 C17        -4.4194    4.8099    7.8113 C.ar      1 <0>        -0.1154
     22 C18        -4.1926    5.9793    8.5220 C.ar      1 <0>         0.0980
     23 C19        -2.9073    6.3072    8.9275 C.ar      1 <0>        -0.1792
     24 C20        -1.8532    5.4664    8.6293 C.ar      1 <0>        -0.1019
     25 O1         -5.2309    6.8050    8.8209 O.3       1 <0>        -0.3275
     26 C21        -4.9251    7.9922    9.5552 C.3       1 <0>         0.0270
     27 C22        -6.2093    8.7883    9.7955 C.3       1 <0>         0.0037
     28 N5         -7.1092    8.0161   10.6625 N.4       1 <0>        -0.3956
     29 C23        -6.5439    7.9216   12.0328 C.3       1 <0>        -0.0103
     30 C24        -7.7853    7.6167   12.9083 C.3       1 <0>        -0.1448
     31 C25        -8.8926    8.4690   12.2467 C.3       1 <0>        -0.1451
     32 C26        -8.4034    8.7171   10.8078 C.3       1 <0>        -0.0086
     33 C27         2.0807    0.0282    5.6615 C.3       1 <0>        -0.1088
     34 C28        -0.3820   -2.7260    2.2422 C.3       1 <0>        -0.1197
     35 H1          1.6938    1.8831    0.2189 H         1 <0>         0.0732
     36 H2          0.2940    2.1834   -0.8389 H         1 <0>         0.0715
     37 H3          0.0733    2.0921    0.9250 H         1 <0>         0.0688
     38 H4          0.6417    0.1692   -2.1506 H         1 <0>         0.1264
     39 H5          0.2536   -2.2537   -2.3278 H         1 <0>         0.1262
     40 H6         -0.2155   -3.5835   -0.3118 H         1 <0>         0.1265
     41 H7          1.8176   -0.9289    3.1815 H         1 <0>         0.1446
     42 H8         -1.6320    1.3008    1.9625 H         1 <0>         0.1496
     43 H9         -0.3064    3.2977    8.2563 H         1 <0>         0.4279
     44 H10        -3.5422    3.0609    6.9529 H         1 <0>         0.1391
     45 H11        -5.4204    4.5555    7.4956 H         1 <0>         0.1378
     46 H12        -2.7314    7.2182    9.4802 H         1 <0>         0.1318
     47 H13        -0.8531    5.7196    8.9490 H         1 <0>         0.1352
     48 H14        -4.4802    7.7225   10.5130 H         1 <0>         0.0848
     49 H15        -4.2217    8.6002    8.9862 H         1 <0>         0.1081
     50 H16        -5.9651    9.7353   10.2768 H         1 <0>         0.1481
     51 H17        -6.7008    8.9816    8.8419 H         1 <0>         0.1415
     52 H18        -5.8202    7.1089   12.0952 H         1 <0>         0.1335
     53 H19        -6.0884    8.8671   12.3271 H         1 <0>         0.1346
     54 H20        -8.0368    6.5570   12.8653 H         1 <0>         0.0983
     55 H21        -7.6183    7.9331   13.9379 H         1 <0>         0.1170
     56 H22        -9.8356    7.9224   12.2368 H         1 <0>         0.1055
     57 H23        -9.0083    9.4151   12.7754 H         1 <0>         0.1042
     58 H24        -8.2677    9.7856   10.6408 H         1 <0>         0.1312
     59 H25        -9.1249    8.3160   10.0960 H         1 <0>         0.1330
     60 H26         2.9394    0.6911    5.5550 H         1 <0>         0.0769
     61 H27         1.6601    0.1363    6.6612 H         1 <0>         0.0786
     62 H28         2.3973   -1.0038    5.5102 H         1 <0>         0.0738
     63 H29         0.5544   -3.0931    2.6624 H         1 <0>         0.0743
     64 H30        -0.8913   -2.1039    2.9783 H         1 <0>         0.0654
     65 H31        -1.0179   -3.5710    1.9784 H         1 <0>         0.0711
     66 H32        -7.2542    7.0935   10.2806 H         1 <0>         0.4340
@<TRIPOS>BOND
     1    1    2 1
     2    1   35 1
     3    1   36 1
     4    1   37 1
     5    2    7 ar
     6    2    3 ar
     7    3    4 ar
     8    3   38 1
     9    4    5 ar
    10    4   39 1
    11    5    6 ar
    12    5   40 1
    13    6    7 ar
    14    6   34 1
    15    7    8 1
    16    8   13 ar
    17    8    9 ar
    18    9   10 ar
    19    9   41 1
    20   10   11 ar
    21   10   33 1
    22   11   17 ar
    23   11   12 ar
    24   12   13 ar
    25   12   14 ar
    26   13   42 1
    27   14   15 ar
    28   15   16 ar
    29   16   17 ar
    30   16   18 1
    31   18   19 1
    32   18   43 1
    33   19   24 ar
    34   19   20 ar
    35   20   21 ar
    36   20   44 1
    37   21   22 ar
    38   21   45 1
    39   22   23 ar
    40   22   25 1
    41   23   24 ar
    42   23   46 1
    43   24   47 1
    44   25   26 1
    45   26   27 1
    46   26   48 1
    47   26   49 1
    48   27   28 1
    49   27   50 1
    50   27   51 1
    51   28   32 1
    52   28   29 1
    53   28   66 1
    54   29   30 1
    55   29   52 1
    56   29   53 1
    57   30   31 1
    58   30   54 1
    59   30   55 1
    60   31   32 1
    61   31   56 1
    62   31   57 1
    63   32   58 1
    64   32   59 1
    65   33   60 1
    66   33   61 1
    67   33   62 1
    68   34   63 1
    69   34   64 1
    70   34   65 1
@<TRIPOS>MOLECULE
CHEMBL1084302
   79    84     0     0     0
SMALL
USER_CHARGES

@<TRIPOS>ATOM
      1 C1         -1.2987    1.3414   -0.0342 C.3       1 <0>        -0.0469
      2 N1         -0.9909   -0.0949   -0.0281 N.4       1 <0>        -0.3834
      3 C2         -2.2417   -0.8620   -0.0853 C.3       1 <0>        -0.0236
      4 C3         -1.9190   -2.3559   -0.1946 C.3       1 <0>         0.1001
      5 N2         -1.0315   -2.7239    0.9195 N.pl3     1 <0>        -0.6458
      6 C4          0.1670   -1.9031    1.1512 C.3       1 <0>         0.1001
      7 C5         -0.2541   -0.4305    1.1969 C.3       1 <0>        -0.0233
      8 C6         -1.3190   -3.8214    1.7344 C.ar      1 <0>         0.1964
      9 C7         -2.5127   -4.5153    1.5707 C.ar      1 <0>        -0.1929
     10 C8         -2.8012   -5.6017    2.3747 C.ar      1 <0>        -0.0687
     11 C9         -1.9064   -6.0044    3.3456 C.ar      1 <0>        -0.1332
     12 C10        -0.7059   -5.3146    3.5176 C.ar      1 <0>         0.0712
     13 C11        -0.4116   -4.2225    2.7028 C.ar      1 <0>        -0.1811
     14 C12         0.2554   -5.7447    4.5590 C.2       1 <0>        -0.2372
     15 C13         1.6265   -5.9681    4.3827 C.2       1 <0>         0.1224
     16 N3          2.1456   -6.3366    5.5276 N.2       1 <0>        -0.3241
     17 N4          1.1403   -6.3705    6.5001 N.pl3     1 <0>        -0.3424
     18 C14        -0.0362   -5.9981    5.9054 C.2       1 <0>         0.3273
     19 N5         -1.1738   -5.9363    6.6063 N.2       1 <0>        -0.5099
     20 C15        -1.2049   -6.2264    7.8875 C.2       1 <0>         0.2405
     21 C16        -0.0288   -6.6112    8.5532 C.2       1 <0>        -0.2478
     22 C17         1.1586   -6.6870    7.8319 C.2       1 <0>         0.5028
     23 N6          2.3309   -7.0582    8.4483 N.pl3     1 <0>        -0.8204
     24 C18        -0.0544   -6.9394    9.9991 C.ar      1 <0>        -0.0503
     25 C19         0.2342   -8.2349   10.4263 C.ar      1 <0>        -0.0933
     26 C20         0.2102   -8.5373   11.7715 C.ar      1 <0>        -0.1420
     27 C21        -0.1016   -7.5526   12.7008 C.ar      1 <0>         0.1744
     28 C22        -0.3895   -6.2608   12.2777 C.ar      1 <0>        -0.1136
     29 C23        -0.3613   -5.9517   10.9341 C.ar      1 <0>        -0.0789
     30 N7         -0.1261   -7.8625   14.0656 N.am      1 <0>        -0.6883
     31 C24         0.2886   -6.9539   14.9705 C.2       1 <0>         0.7067
     32 O1          0.6061   -5.8372   14.6092 O.2       1 <0>        -0.5712
     33 N8          0.3512   -7.2831   16.2760 N.am      1 <0>        -0.6212
     34 C25        -0.0314   -8.6285   16.7113 C.3       1 <0>         0.0714
     35 C26         0.8020   -6.2954   17.2596 C.3       1 <0>         0.1555
     36 C27         2.0480   -6.8206   17.9755 C.3       1 <0>        -0.1267
     37 C28         2.5187   -5.7891   19.0028 C.3       1 <0>        -0.1176
     38 C29         1.4077   -5.5446   20.0260 C.3       1 <0>        -0.1229
     39 C30         0.1617   -5.0194   19.3100 C.3       1 <0>        -0.1173
     40 C31        -0.3090   -6.0509   18.2827 C.3       1 <0>        -0.1281
     41 H1         -0.3707    1.9121    0.0002 H         1 <0>         0.1244
     42 H2         -1.8457    1.5919   -0.9432 H         1 <0>         0.1247
     43 H3         -1.9082    1.5862    0.8357 H         1 <0>         0.1213
     44 H4         -2.8211   -0.6805    0.8199 H         1 <0>         0.1322
     45 H5         -2.8196   -0.5504   -0.9554 H         1 <0>         0.1398
     46 H6         -2.8406   -2.9349   -0.1354 H         1 <0>         0.1273
     47 H7         -1.4186   -2.5542   -1.1424 H         1 <0>         0.0862
     48 H8          0.6247   -2.1827    2.1002 H         1 <0>         0.1261
     49 H9          0.8781   -2.0556    0.3393 H         1 <0>         0.0862
     50 H10         0.6326    0.1990    1.2717 H         1 <0>         0.1396
     51 H11        -0.8936   -0.2621    2.0634 H         1 <0>         0.1321
     52 H12        -3.2168   -4.2042    0.8131 H         1 <0>         0.1194
     53 H13        -3.7299   -6.1370    2.2433 H         1 <0>         0.1267
     54 H14        -2.1357   -6.8534    3.9725 H         1 <0>         0.1233
     55 H15         0.5183   -3.6879    2.8284 H         1 <0>         0.1206
     56 H16         2.1673   -5.8555    3.4547 H         1 <0>         0.1969
     57 H17        -2.1368   -6.1686    8.4304 H         1 <0>         0.1805
     58 H18         3.1554   -7.0978    7.9388 H         1 <0>         0.4179
     59 H19         2.3332   -7.2805    9.3925 H         1 <0>         0.4274
     60 H20         0.4759   -9.0008    9.7043 H         1 <0>         0.1262
     61 H21         0.4337   -9.5406   12.1029 H         1 <0>         0.1292
     62 H22        -0.6316   -5.4972   13.0020 H         1 <0>         0.1446
     63 H23        -0.5812   -4.9465   10.6061 H         1 <0>         0.1283
     64 H24        -0.4416   -8.7312   14.3600 H         1 <0>         0.4084
     65 H25         0.8431   -9.2788   16.6929 H         1 <0>         0.0607
     66 H26        -0.4291   -8.5830   17.7251 H         1 <0>         0.0821
     67 H27        -0.7931   -9.0248   16.0397 H         1 <0>         0.0657
     68 H28         1.0411   -5.3606   16.7526 H         1 <0>         0.1044
     69 H29         1.8088   -7.7554   18.4826 H         1 <0>         0.0657
     70 H30         2.8395   -6.9948   17.2466 H         1 <0>         0.0648
     71 H31         3.4064   -6.1633   19.5129 H         1 <0>         0.0674
     72 H32         2.7579   -4.8543   18.4958 H         1 <0>         0.0653
     73 H33         1.1685   -6.4793   20.5330 H         1 <0>         0.0631
     74 H34         1.7431   -4.8097   20.7578 H         1 <0>         0.0659
     75 H35        -0.6298   -4.8452   20.0389 H         1 <0>         0.0677
     76 H36         0.4009   -4.0846   18.8030 H         1 <0>         0.0655
     77 H37        -1.1967   -5.6767   17.7727 H         1 <0>         0.0659
     78 H38        -0.5482   -6.9856   18.7898 H         1 <0>         0.0663
     79 H39        -0.4243   -0.3197   -0.8321 H         1 <0>         0.4242
@<TRIPOS>BOND
     1    1    2 1
     2    1   41 1
     3    1   42 1
     4    1   43 1
     5    2    7 1
     6    2    3 1
     7    2   79 1
     8    3    4 1
     9    3   44 1
    10    3   45 1
    11    4    5 1
    12    4   46 1
    13    4   47 1
    14    5    6 1
    15    5    8 1
    16    6    7 1
    17    6   48 1
    18    6   49 1
    19    7   50 1
    20    7   51 1
    21    8   13 ar
    22    8    9 ar
    23    9   10 ar
    24    9   52 1
    25   10   11 ar
    26   10   53 1
    27   11   12 ar
    28   11   54 1
    29   12   13 ar
    30   12   14 1
    31   13   55 1
    32   14   18 2
    33   14   15 1
    34   15   16 2
    35   15   56 1
    36   16   17 1
    37   17   22 1
    38   17   18 1
    39   18   19 1
    40   19   20 2
    41   20   21 1
    42   20   57 1
    43   21   22 2
    44   21   24 1
    45   22   23 1
    46   23   58 1
    47   23   59 1
    48   24   29 ar
    49   24   25 ar
    50   25   26 ar
    51   25   60 1
    52   26   27 ar
    53   26   61 1
    54   27   28 ar
    55   27   30 1
    56   28   29 ar
    57   28   62 1
    58   29   63 1
    59   30   31 am
    60   30   64 1
    61   31   32 2
    62   31   33 am
    63   33   34 1
    64   33   35 1
    65   34   65 1
    66   34   66 1
    67   34   67 1
    68   35   40 1
    69   35   36 1
    70   35   68 1
    71   36   37 1
    72   36   69 1
    73   36   70 1
    74   37   38 1
    75   37   71 1
    76   37   72 1
    77   38   39 1
    78   38   73 1
    79   38   74 1
    80   39   40 1
    81   39   75 1
    82   39   76 1
    83   40   77 1
    84   40   78 1
@<TRIPOS>MOLECULE
CHEMBL1084302__1
   78    83     0     0     0
SMALL
USER_CHARGES

@<TRIPOS>ATOM
      1 C1         -1.2940    1.3180   -0.0822 C.3       1 <0>         0.0244
      2 N1         -0.9893   -0.1190   -0.0666 N.3       1 <0>        -0.5425
      3 C2         -2.2121   -0.9182   -0.2212 C.3       1 <0>         0.0381
      4 C3         -1.8361   -2.3951   -0.3817 C.3       1 <0>         0.1267
      5 N2         -0.9776   -2.7840    0.7474 N.pl3     1 <0>        -0.6331
      6 C4          0.1945   -1.9488    1.0503 C.3       1 <0>         0.1271
      7 C5         -0.2613   -0.4895    1.1544 C.3       1 <0>         0.0385
      8 C6         -1.2676   -3.9168    1.5116 C.ar      1 <0>         0.2209
      9 C7         -2.4396   -4.6289    1.2824 C.ar      1 <0>        -0.2038
     10 C8         -2.7304   -5.7502    2.0361 C.ar      1 <0>        -0.0696
     11 C9         -1.8595   -6.1699    3.0215 C.ar      1 <0>        -0.1532
     12 C10        -0.6810   -5.4620    3.2590 C.ar      1 <0>         0.0599
     13 C11        -0.3841   -4.3345    2.4950 C.ar      1 <0>        -0.1918
     14 C12         0.2546   -5.9103    4.3161 C.2       1 <0>        -0.2135
     15 C13         1.6354   -6.0982    4.1784 C.2       1 <0>         0.1207
     16 N3          2.1244   -6.4982    5.3260 N.2       1 <0>        -0.3271
     17 N4          1.0884   -6.5891    6.2620 N.pl3     1 <0>        -0.3436
     18 C14        -0.0757   -6.2196    5.6417 C.2       1 <0>         0.3168
     19 N5         -1.2370   -6.2077    6.3054 N.2       1 <0>        -0.5006
     20 C15        -1.3041   -6.5457    7.5734 C.2       1 <0>         0.2342
     21 C16        -0.1424   -6.9303    8.2642 C.2       1 <0>        -0.2560
     22 C17         1.0696   -6.9544    7.5812 C.2       1 <0>         0.5016
     23 N6          2.2289   -7.3237    8.2231 N.pl3     1 <0>        -0.8245
     24 C18        -0.2085   -7.3124    9.6954 C.ar      1 <0>        -0.0408
     25 C19         0.0943   -8.6166   10.0847 C.ar      1 <0>        -0.0949
     26 C20         0.0325   -8.9692   11.4164 C.ar      1 <0>        -0.1422
     27 C21        -0.3316   -8.0264   12.3698 C.ar      1 <0>         0.1684
     28 C22        -0.6339   -6.7261   11.9845 C.ar      1 <0>        -0.1131
     29 C23        -0.5681   -6.3668   10.6549 C.ar      1 <0>        -0.0802
     30 N7         -0.3944   -8.3873   13.7208 N.am      1 <0>        -0.6875
     31 C24        -0.0303   -7.5044   14.6718 C.2       1 <0>         0.7061
     32 O1          0.2742   -6.3686   14.3624 O.2       1 <0>        -0.5700
     33 N8         -0.0036   -7.8804   15.9658 N.am      1 <0>        -0.6225
     34 C25        -0.3704   -9.2489   16.3386 C.3       1 <0>         0.0723
     35 C26         0.3923   -6.9207   16.9995 C.3       1 <0>         0.1555
     36 C27         1.6253   -7.4458   17.7376 C.3       1 <0>        -0.1266
     37 C28         2.0387   -6.4436   18.8172 C.3       1 <0>        -0.1177
     38 C29         0.8893   -6.2606   19.8103 C.3       1 <0>        -0.1222
     39 C30        -0.3437   -5.7355   19.0721 C.3       1 <0>        -0.1174
     40 C31        -0.7571   -6.7378   17.9926 C.3       1 <0>        -0.1281
     41 H1         -0.3651    1.8869   -0.0429 H         1 <0>         0.0700
     42 H2         -1.8330    1.5652   -0.9968 H         1 <0>         0.0699
     43 H3         -1.9101    1.5681    0.7815 H         1 <0>         0.0254
     44 H4         -2.8401   -0.7965    0.6613 H         1 <0>         0.0383
     45 H5         -2.7562   -0.5834   -1.1043 H         1 <0>         0.0848
     46 H6         -2.7396   -3.0049   -0.3818 H         1 <0>         0.0873
     47 H7         -1.2959   -2.5358   -1.3179 H         1 <0>         0.0687
     48 H8          0.6337   -2.2636    1.9970 H         1 <0>         0.0859
     49 H9          0.9300   -2.0466    0.2518 H         1 <0>         0.0686
     50 H10         0.6093    0.1562    1.2689 H         1 <0>         0.0845
     51 H11        -0.9166   -0.3738    2.0177 H         1 <0>         0.0382
     52 H12        -3.1249   -4.3046    0.5132 H         1 <0>         0.1188
     53 H13        -3.6421   -6.2996    1.8539 H         1 <0>         0.1193
     54 H14        -2.0906   -7.0462    3.6089 H         1 <0>         0.1154
     55 H15         0.5291   -3.7856    2.6714 H         1 <0>         0.1194
     56 H16         2.2041   -5.9400    3.2739 H         1 <0>         0.1987
     57 H17        -2.2544   -6.5276    8.0861 H         1 <0>         0.1777
     58 H18         3.0704   -7.3271    7.7408 H         1 <0>         0.4167
     59 H19         2.2048   -7.5808    9.1581 H         1 <0>         0.4247
     60 H20         0.3768   -9.3500    9.3440 H         1 <0>         0.1261
     61 H21         0.2670   -9.9792   11.7185 H         1 <0>         0.1274
     62 H22        -0.9167   -5.9952   12.7276 H         1 <0>         0.1433
     63 H23        -0.7992   -5.3549   10.3564 H         1 <0>         0.1291
     64 H24        -0.7001   -9.2727   13.9726 H         1 <0>         0.4072
     65 H25         0.5186   -9.8795   16.3262 H         1 <0>         0.0597
     66 H26        -0.8023   -9.2494   17.3394 H         1 <0>         0.0808
     67 H27        -1.1003   -9.6359   15.6276 H         1 <0>         0.0657
     68 H28         0.6273   -5.9629   16.5352 H         1 <0>         0.1047
     69 H29         1.3903   -8.4036   18.2019 H         1 <0>         0.0651
     70 H30         2.4442   -7.5762   17.0301 H         1 <0>         0.0651
     71 H31         2.9171   -6.8177   19.3430 H         1 <0>         0.0667
     72 H32         2.2737   -5.4858   18.3529 H         1 <0>         0.0656
     73 H33         0.6543   -7.2184   20.2745 H         1 <0>         0.0625
     74 H34         1.1838   -5.5466   20.5794 H         1 <0>         0.0651
     75 H35        -1.1626   -5.6052   19.7796 H         1 <0>         0.0671
     76 H36        -0.1088   -4.7777   18.6079 H         1 <0>         0.0658
     77 H37        -1.6356   -6.3637   17.4667 H         1 <0>         0.0662
     78 H38        -0.9921   -7.6956   18.4568 H         1 <0>         0.0656
@<TRIPOS>BOND
     1    1    2 1
     2    1   41 1
     3    1   42 1
     4    1   43 1
     5    2    7 1
     6    2    3 1
     7    3    4 1
     8    3   44 1
     9    3   45 1
    10    4    5 1
    11    4   46 1
    12    4   47 1
    13    5    6 1
    14    5    8 1
    15    6    7 1
    16    6   48 1
    17    6   49 1
    18    7   50 1
    19    7   51 1
    20    8   13 ar
    21    8    9 ar
    22    9   10 ar
    23    9   52 1
    24   10   11 ar
    25   10   53 1
    26   11   12 ar
    27   11   54 1
    28   12   13 ar
    29   12   14 1
    30   13   55 1
    31   14   18 2
    32   14   15 1
    33   15   16 2
    34   15   56 1
    35   16   17 1
    36   17   22 1
    37   17   18 1
    38   18   19 1
    39   19   20 2
    40   20   21 1
    41   20   57 1
    42   21   22 2
    43   21   24 1
    44   22   23 1
    45   23   58 1
    46   23   59 1
    47   24   29 ar
    48   24   25 ar
    49   25   26 ar
    50   25   60 1
    51   26   27 ar
    52   26   61 1
    53   27   28 ar
    54   27   30 1
    55   28   29 ar
    56   28   62 1
    57   29   63 1
    58   30   31 am
    59   30   64 1
    60   31   32 2
    61   31   33 am
    62   33   34 1
    63   33   35 1
    64   34   65 1
    65   34   66 1
    66   34   67 1
    67   35   40 1
    68   35   36 1
    69   35   68 1
    70   36   37 1
    71   36   69 1
    72   36   70 1
    73   37   38 1
    74   37   71 1
    75   37   72 1
    76   38   39 1
    77   38   73 1
    78   38   74 1
    79   39   40 1
    80   39   75 1
    81   39   76 1
    82   40   77 1
    83   40   78 1
@<TRIPOS>MOLECULE
CHEMBL376475
   59    62     0     0     0
SMALL
USER_CHARGES

@<TRIPOS>ATOM
      1 C1          0.0090    1.4520    0.0119 C.3       1 <0>        -0.0506
      2 N1          0.0167   -0.0170    0.0027 N.4       1 <0>        -0.3816
      3 C2         -1.3657   -0.5119    0.0025 C.3       1 <0>        -0.0283
      4 C3         -1.3604   -2.0391   -0.1228 C.3       1 <0>         0.1124
      5 N2         -0.5176   -2.5919    0.9488 N.pl3     1 <0>        -0.6781
      6 C4          0.8326   -2.0354    1.1258 C.3       1 <0>         0.1172
      7 C5          0.7237   -0.5084    1.1921 C.3       1 <0>        -0.0287
      8 C6         -0.9871   -3.6175    1.7764 C.ar      1 <0>         0.1458
      9 C7         -0.7794   -4.9436    1.4268 C.ar      1 <0>        -0.0919
     10 C8         -1.2437   -5.9553    2.2463 C.ar      1 <0>        -0.0786
     11 C9         -1.9158   -5.6499    3.4156 C.ar      1 <0>        -0.1462
     12 C10        -2.1273   -4.3311    3.7720 C.ar      1 <0>        -0.0752
     13 C11        -1.6603   -3.3096    2.9585 C.ar      1 <0>         0.1483
     14 N3         -1.8685   -1.9724    3.3205 N.am      1 <0>        -0.6641
     15 C12        -2.0471   -1.6449    4.6157 C.2       1 <0>         0.5577
     16 O1         -1.9276   -2.4925    5.4791 O.2       1 <0>        -0.4787
     17 C13        -2.3878   -0.2563    4.9860 C.ar      1 <0>        -0.1803
     18 C14        -2.5307    0.7156    3.9972 C.ar      1 <0>        -0.0446
     19 C15        -2.8524    2.0238    4.3557 C.ar      1 <0>         0.0063
     20 C16        -3.0298    2.3538    5.7038 C.ar      1 <0>        -0.0279
     21 C17        -2.8868    1.3888    6.6782 C.ar      1 <0>        -0.1507
     22 C18        -2.5736    0.0858    6.3301 C.ar      1 <0>         0.1830
     23 F1         -2.4416   -0.8555    7.2901 F         1 <0>        -0.1017
     24 C19        -3.0006    3.0283    3.3459 C.1       1 <0>        -0.1409
     25 C20        -3.1221    3.8519    2.5181 C.1       1 <0>        -0.0680
     26 C21        -3.2703    4.8564    1.5083 C.ar      1 <0>        -0.1814
     27 C22        -3.1018    4.5439    0.1528 C.ar      1 <0>         0.2335
     28 N4         -3.2471    5.4993   -0.7472 N.ar      1 <0>        -0.5650
     29 C23        -3.5477    6.7379   -0.3830 C.ar      1 <0>         0.5799
     30 N5         -3.7149    7.0743    0.8883 N.ar      1 <0>        -0.5670
     31 C24        -3.5933    6.1766    1.8492 C.ar      1 <0>         0.2290
     32 N6         -3.6908    7.7083   -1.3584 N.pl3     1 <0>        -0.8073
     33 C25        -2.4196   -6.7581    4.3039 C.3       1 <0>         0.5070
     34 F2         -2.0896   -7.9948    3.7392 F         1 <0>        -0.1725
     35 F3         -1.8275   -6.6492    5.5667 F         1 <0>        -0.1688
     36 F4         -3.8093   -6.6592    4.4303 F         1 <0>        -0.1722
     37 H1          1.0347    1.8208    0.0040 H         1 <0>         0.1282
     38 H2         -0.5156    1.8181   -0.8706 H         1 <0>         0.1260
     39 H3         -0.4979    1.8070    0.9093 H         1 <0>         0.1205
     40 H4         -1.8545   -0.2254    0.9337 H         1 <0>         0.1180
     41 H5         -1.9063   -0.0801   -0.8397 H         1 <0>         0.1452
     42 H6         -2.3772   -2.4184   -0.0216 H         1 <0>         0.1200
     43 H7         -0.9542   -2.3256   -1.0928 H         1 <0>         0.0898
     44 H8          1.2656   -2.4123    2.0523 H         1 <0>         0.1192
     45 H9          1.4602   -2.3215    0.2818 H         1 <0>         0.0878
     46 H10         1.7228   -0.0740    1.2264 H         1 <0>         0.1441
     47 H11         0.1717   -0.2220    2.0873 H         1 <0>         0.1242
     48 H12        -0.2552   -5.1857    0.5141 H         1 <0>         0.1444
     49 H13        -1.0814   -6.9873    1.9724 H         1 <0>         0.1492
     50 H14        -2.6529   -4.0963    4.6858 H         1 <0>         0.1622
     51 H15        -1.8841   -1.2823    2.6391 H         1 <0>         0.3998
     52 H16        -2.3925    0.4564    2.9579 H         1 <0>         0.1232
     53 H17        -3.2790    3.3672    5.9819 H         1 <0>         0.1515
     54 H18        -3.0242    1.6495    7.7172 H         1 <0>         0.1593
     55 H19        -2.8564    3.5370   -0.1512 H         1 <0>         0.1749
     56 H20        -3.7358    6.4568    2.8824 H         1 <0>         0.1728
     57 H21        -3.5713    7.4778   -2.2931 H         1 <0>         0.4212
     58 H22        -3.9107    8.6192   -1.1078 H         1 <0>         0.4206
     59 H23         0.4887   -0.3444   -0.8269 H         1 <0>         0.4281
@<TRIPOS>BOND
     1    1    2 1
     2    1   37 1
     3    1   38 1
     4    1   39 1
     5    2    7 1
     6    2    3 1
     7    2   59 1
     8    3    4 1
     9    3   40 1
    10    3   41 1
    11    4    5 1
    12    4   42 1
    13    4   43 1
    14    5    6 1
    15    5    8 1
    16    6    7 1
    17    6   44 1
    18    6   45 1
    19    7   46 1
    20    7   47 1
    21    8   13 ar
    22    8    9 ar
    23    9   10 ar
    24    9   48 1
    25   10   11 ar
    26   10   49 1
    27   11   12 ar
    28   11   33 1
    29   12   13 ar
    30   12   50 1
    31   13   14 1
    32   14   15 am
    33   14   51 1
    34   15   16 2
    35   15   17 1
    36   17   22 ar
    37   17   18 ar
    38   18   19 ar
    39   18   52 1
    40   19   20 ar
    41   19   24 1
    42   20   21 ar
    43   20   53 1
    44   21   22 ar
    45   21   54 1
    46   22   23 1
    47   24   25 3
    48   25   26 1
    49   26   31 ar
    50   26   27 ar
    51   27   28 ar
    52   27   55 1
    53   28   29 ar
    54   29   30 ar
    55   29   32 1
    56   30   31 ar
    57   31   56 1
    58   32   57 1
    59   32   58 1
    60   33   34 1
    61   33   35 1
    62   33   36 1
@<TRIPOS>MOLECULE
CHEMBL385956
   51    54     0     0     0
SMALL
USER_CHARGES

@<TRIPOS>ATOM
      1 C1         -1.2586    1.0187    0.3884 C.3       1 <0>        -0.1199
      2 C2         -0.4677   -0.2569    0.2517 C.ar      1 <0>        -0.0813
      3 C3         -0.4148   -0.9074   -0.9670 C.ar      1 <0>        -0.1087
      4 C4          0.3072   -2.0757   -1.1000 C.ar      1 <0>        -0.1007
      5 C5          0.9876   -2.6050   -0.0015 C.ar      1 <0>        -0.1305
      6 C6          0.9343   -1.9489    1.2280 C.ar      1 <0>        -0.0465
      7 C7          0.2106   -0.7723    1.3499 C.ar      1 <0>         0.1476
      8 N1          0.1585   -0.1076    2.5787 N.pl3     1 <0>        -0.6419
      9 C8          0.0690   -0.8341    3.7568 C.ar      1 <0>         0.4323
     10 C9         -0.0602   -0.1626    4.9820 C.ar      1 <0>        -0.1849
     11 C10        -0.1492   -0.9136    6.1553 C.ar      1 <0>        -0.0013
     12 C11        -0.1058   -2.2950    6.0581 C.ar      1 <0>        -0.2305
     13 C12         0.0230   -2.8855    4.8150 C.ar      1 <0>         0.1772
     14 N2          0.1004   -2.1567    3.7180 N.ar      1 <0>        -0.5341
     15 C13        -0.1009    1.3171    5.0295 C.ar      1 <0>         0.2434
     16 C14        -0.0821    1.9900    6.2556 C.ar      1 <0>        -0.2239
     17 C15        -0.1219    3.3718    6.2451 C.ar      1 <0>         0.1626
     18 N3         -0.1761    4.0082    5.0844 N.ar      1 <0>        -0.5255
     19 C16        -0.1926    3.3454    3.9452 C.ar      1 <0>         0.3133
     20 N4         -0.1506    2.0299    3.9052 N.ar      1 <0>        -0.5454
     21 C17         1.7614   -3.8568   -0.1412 C.2       1 <0>         0.5638
     22 O1          2.3530   -4.3158    0.8164 O.2       1 <0>        -0.5090
     23 N5          1.8110   -4.4892   -1.3304 N.am      1 <0>        -0.6712
     24 C18         2.6120   -5.6250   -1.4854 C.ar      1 <0>         0.1467
     25 C19         3.2688   -5.8547   -2.6877 C.ar      1 <0>        -0.1126
     26 C20         4.0593   -6.9770   -2.8374 C.ar      1 <0>        -0.0998
     27 C21         4.1972   -7.8720   -1.7920 C.ar      1 <0>        -0.0879
     28 C22         3.5444   -7.6466   -0.5942 C.ar      1 <0>        -0.1645
     29 C23         2.7571   -6.5227   -0.4359 C.ar      1 <0>        -0.0718
     30 C24         3.6971   -8.6248    0.5419 C.3       1 <0>         0.5093
     31 F1          4.5402   -9.6694    0.1478 F         1 <0>        -0.1766
     32 F2          4.2500   -7.9715    1.6486 F         1 <0>        -0.1727
     33 F3          2.4429   -9.1416    0.8841 F         1 <0>        -0.1757
     34 H1         -0.6167    1.8701    0.1624 H         1 <0>         0.0749
     35 H2         -2.0981    1.0019   -0.3067 H         1 <0>         0.0732
     36 H3         -1.6330    1.1065    1.4083 H         1 <0>         0.0700
     37 H4         -0.9406   -0.4999   -1.8178 H         1 <0>         0.1338
     38 H5          0.3457   -2.5810   -2.0537 H         1 <0>         0.1252
     39 H6          1.4585   -2.3535    2.0812 H         1 <0>         0.1522
     40 H7          0.1851    0.8616    2.6074 H         1 <0>         0.4344
     41 H8         -0.2490   -0.4296    7.1156 H         1 <0>         0.1415
     42 H9         -0.1718   -2.9055    6.9465 H         1 <0>         0.1424
     43 H10         0.0567   -3.9623    4.7401 H         1 <0>         0.1642
     44 H11        -0.0379    1.4441    7.1864 H         1 <0>         0.1518
     45 H12        -0.1093    3.9259    7.1721 H         1 <0>         0.1736
     46 H13        -0.2375    3.8972    3.0179 H         1 <0>         0.2005
     47 H14         1.2911   -4.1565   -2.0787 H         1 <0>         0.4139
     48 H15         3.1610   -5.1565   -3.5046 H         1 <0>         0.1368
     49 H16         4.5703   -7.1561   -3.7718 H         1 <0>         0.1410
     50 H17         4.8158   -8.7492   -1.9118 H         1 <0>         0.1408
     51 H18         2.2510   -6.3449    0.5015 H         1 <0>         0.1505
@<TRIPOS>BOND
     1    1    2 1
     2    1   34 1
     3    1   35 1
     4    1   36 1
     5    2    7 ar
     6    2    3 ar
     7    3    4 ar
     8    3   37 1
     9    4    5 ar
    10    4   38 1
    11    5    6 ar
    12    5   21 1
    13    6    7 ar
    14    6   39 1
    15    7    8 1
    16    8    9 1
    17    8   40 1
    18    9   14 ar
    19    9   10 ar
    20   10   11 ar
    21   10   15 1
    22   11   12 ar
    23   11   41 1
    24   12   13 ar
    25   12   42 1
    26   13   14 ar
    27   13   43 1
    28   15   20 ar
    29   15   16 ar
    30   16   17 ar
    31   16   44 1
    32   17   18 ar
    33   17   45 1
    34   18   19 ar
    35   19   20 ar
    36   19   46 1
    37   21   22 2
    38   21   23 am
    39   23   24 1
    40   23   47 1
    41   24   29 ar
    42   24   25 ar
    43   25   26 ar
    44   25   48 1
    45   26   27 ar
    46   26   49 1
    47   27   28 ar
    48   27   50 1
    49   28   29 ar
    50   28   30 1
    51   29   51 1
    52   30   31 1
    53   30   32 1
    54   30   33 1
@<TRIPOS>MOLECULE
CHEMBL1084028
   79    84     0     0     0
SMALL
USER_CHARGES

@<TRIPOS>ATOM
      1 C1         -0.1214    1.4024   -0.0376 C.3       1 <0>        -0.0467
      2 N1         -0.0931   -0.0663   -0.0361 N.4       1 <0>        -0.3835
      3 C2         -1.4684   -0.5806   -0.0323 C.3       1 <0>        -0.0235
      4 C3         -1.4417   -2.1084   -0.1464 C.3       1 <0>         0.1001
      5 N2         -0.5912   -2.6415    0.9290 N.pl3     1 <0>        -0.6458
      6 C4          0.7511   -2.0648    1.1016 C.3       1 <0>         0.1001
      7 C5          0.6209   -0.5391    1.1567 C.3       1 <0>        -0.0231
      8 C6         -1.0455   -3.6659    1.7629 C.ar      1 <0>         0.1962
      9 C7         -2.3537   -4.1238    1.6526 C.ar      1 <0>        -0.1930
     10 C8         -2.8073   -5.1370    2.4757 C.ar      1 <0>        -0.0687
     11 C9         -1.9647   -5.7006    3.4127 C.ar      1 <0>        -0.1332
     12 C10        -0.6503   -5.2480    3.5309 C.ar      1 <0>         0.0714
     13 C11        -0.1903   -4.2303    2.6969 C.ar      1 <0>        -0.1812
     14 C12         0.2553   -5.8510    4.5360 C.2       1 <0>        -0.2375
     15 C13         1.5520   -6.3273    4.3062 C.2       1 <0>         0.1223
     16 N3          2.0393   -6.7869    5.4319 N.2       1 <0>        -0.3236
     17 N4          1.0862   -6.6321    6.4444 N.pl3     1 <0>        -0.3426
     18 C14        -0.0232   -6.0457    5.8948 C.2       1 <0>         0.3274
     19 N5         -1.0994   -5.7720    6.6405 N.2       1 <0>        -0.5105
     20 C15        -1.1317   -6.0514    7.9241 C.2       1 <0>         0.2405
     21 C16        -0.0222   -6.6500    8.5447 C.2       1 <0>        -0.2490
     22 C17         1.0994   -6.9468    7.7767 C.2       1 <0>         0.5035
     23 N6          2.2058   -7.5313    8.3481 N.pl3     1 <0>        -0.8197
     24 C18        -0.0495   -6.9680    9.9928 C.ar      1 <0>        -0.0512
     25 C19         0.0087   -8.2947   10.4176 C.ar      1 <0>        -0.0917
     26 C20        -0.0164   -8.5877   11.7648 C.ar      1 <0>        -0.1140
     27 C21        -0.0999   -7.5623   12.6986 C.ar      1 <0>         0.1789
     28 C22        -0.1580   -6.2393   12.2779 C.ar      1 <0>        -0.1433
     29 C23        -0.1275   -5.9406   10.9321 C.ar      1 <0>        -0.0772
     30 N7         -0.1261   -7.8625   14.0656 N.am      1 <0>        -0.6894
     31 C24         0.5810   -8.9073   14.5397 C.2       1 <0>         0.7032
     32 O1          1.3192   -9.5280   13.7992 O.2       1 <0>        -0.5712
     33 N8          0.4699   -9.2642   15.8346 N.am      1 <0>        -0.7375
     34 C25         1.2386  -10.3999   16.3500 C.3       1 <0>         0.1404
     35 C26         0.9319  -10.5906   17.8367 C.3       1 <0>        -0.0991
     36 C27         1.4310   -9.3751   18.6205 C.3       1 <0>        -0.1146
     37 C28         1.1243   -9.5658   20.1072 C.3       1 <0>        -0.1206
     38 C29         1.8290  -10.8250   20.6159 C.3       1 <0>        -0.1226
     39 C30         1.3299  -12.0406   19.8321 C.3       1 <0>        -0.1195
     40 C31         1.6366  -11.8498   18.3454 C.3       1 <0>        -0.1121
     41 H1          0.8990    1.7854   -0.0484 H         1 <0>         0.1243
     42 H2         -0.6512    1.7547   -0.9226 H         1 <0>         0.1246
     43 H3         -0.6330    1.7568    0.8572 H         1 <0>         0.1212
     44 H4         -1.9611   -0.2941    0.8968 H         1 <0>         0.1321
     45 H5         -2.0151   -0.1625   -0.8776 H         1 <0>         0.1398
     46 H6         -2.4531   -2.5012   -0.0423 H         1 <0>         0.1273
     47 H7         -1.0317   -2.3963   -1.1145 H         1 <0>         0.0862
     48 H8          1.1894   -2.4289    2.0308 H         1 <0>         0.1262
     49 H9          1.3826   -2.3483    0.2595 H         1 <0>         0.0862
     50 H10         1.6138   -0.0905    1.1877 H         1 <0>         0.1395
     51 H11         0.0650   -0.2539    2.0499 H         1 <0>         0.1320
     52 H12        -3.0175   -3.6860    0.9218 H         1 <0>         0.1193
     53 H13        -3.8244   -5.4889    2.3857 H         1 <0>         0.1267
     54 H14        -2.3231   -6.4918    4.0545 H         1 <0>         0.1233
     55 H15         0.8276   -3.8794    2.7810 H         1 <0>         0.1205
     56 H16         2.0658   -6.3178    3.3563 H         1 <0>         0.1970
     57 H17        -2.0132   -5.8202    8.5036 H         1 <0>         0.1803
     58 H18         2.9867   -7.7245    7.8060 H         1 <0>         0.4181
     59 H19         2.2051   -7.7504    9.2930 H         1 <0>         0.4283
     60 H20         0.0729   -9.0922    9.6922 H         1 <0>         0.1253
     61 H21         0.0286   -9.6152   12.0944 H         1 <0>         0.1388
     62 H22        -0.2229   -5.4441   13.0058 H         1 <0>         0.1302
     63 H23        -0.1685   -4.9119   10.6057 H         1 <0>         0.1295
     64 H24        -0.6532   -7.3186   14.6716 H         1 <0>         0.4088
     65 H25        -0.1189   -8.7690   16.4253 H         1 <0>         0.3986
     66 H26         0.9640  -11.3023   15.8037 H         1 <0>         0.0701
     67 H27         2.3035  -10.2066   16.2205 H         1 <0>         0.0698
     68 H28        -0.1442  -10.6954   17.9752 H         1 <0>         0.0782
     69 H29         2.5071   -9.2703   18.4820 H         1 <0>         0.0655
     70 H30         0.9290   -8.4780   18.2581 H         1 <0>         0.0590
     71 H31         1.4799   -8.6998   20.6656 H         1 <0>         0.0629
     72 H32         0.0483   -9.6706   20.2457 H         1 <0>         0.0620
     73 H33         2.9051  -10.7202   20.4774 H         1 <0>         0.0624
     74 H34         1.6106  -10.9609   21.6751 H         1 <0>         0.0627
     75 H35         1.8320  -12.9377   20.1945 H         1 <0>         0.0652
     76 H36         0.2539  -12.1454   19.9706 H         1 <0>         0.0626
     77 H37         1.2810  -12.7158   17.7870 H         1 <0>         0.0665
     78 H38         2.7127  -11.7450   18.2069 H         1 <0>         0.0668
     79 H39         0.3833   -0.3932   -0.8633 H         1 <0>         0.4243
@<TRIPOS>BOND
     1    1    2 1
     2    1   41 1
     3    1   42 1
     4    1   43 1
     5    2    7 1
     6    2    3 1
     7    2   79 1
     8    3    4 1
     9    3   44 1
    10    3   45 1
    11    4    5 1
    12    4   46 1
    13    4   47 1
    14    5    6 1
    15    5    8 1
    16    6    7 1
    17    6   48 1
    18    6   49 1
    19    7   50 1
    20    7   51 1
    21    8   13 ar
    22    8    9 ar
    23    9   10 ar
    24    9   52 1
    25   10   11 ar
    26   10   53 1
    27   11   12 ar
    28   11   54 1
    29   12   13 ar
    30   12   14 1
    31   13   55 1
    32   14   18 2
    33   14   15 1
    34   15   16 2
    35   15   56 1
    36   16   17 1
    37   17   22 1
    38   17   18 1
    39   18   19 1
    40   19   20 2
    41   20   21 1
    42   20   57 1
    43   21   22 2
    44   21   24 1
    45   22   23 1
    46   23   58 1
    47   23   59 1
    48   24   29 ar
    49   24   25 ar
    50   25   26 ar
    51   25   60 1
    52   26   27 ar
    53   26   61 1
    54   27   28 ar
    55   27   30 1
    56   28   29 ar
    57   28   62 1
    58   29   63 1
    59   30   31 am
    60   30   64 1
    61   31   32 2
    62   31   33 am
    63   33   34 1
    64   33   65 1
    65   34   35 1
    66   34   66 1
    67   34   67 1
    68   35   40 1
    69   35   36 1
    70   35   68 1
    71   36   37 1
    72   36   69 1
    73   36   70 1
    74   37   38 1
    75   37   71 1
    76   37   72 1
    77   38   39 1
    78   38   73 1
    79   38   74 1
    80   39   40 1
    81   39   75 1
    82   39   76 1
    83   40   77 1
    84   40   78 1
@<TRIPOS>MOLECULE
CHEMBL1084028__1
   78    83     0     0     0
SMALL
USER_CHARGES

@<TRIPOS>ATOM
      1 C1         -0.1207    1.4010   -0.0446 C.3       1 <0>         0.0244
      2 N1         -0.0922   -0.0678   -0.0425 N.3       1 <0>        -0.5424
      3 C2         -1.4502   -0.6207   -0.1315 C.3       1 <0>         0.0382
      4 C3         -1.3687   -2.1407   -0.3088 C.3       1 <0>         0.1266
      5 N2         -0.5417   -2.6937    0.7745 N.pl3     1 <0>        -0.6331
      6 C4          0.7811   -2.0971    1.0141 C.3       1 <0>         0.1271
      7 C5          0.6149   -0.5789    1.1394 C.3       1 <0>         0.0386
      8 C6         -1.0004   -3.7577    1.5548 C.ar      1 <0>         0.2208
      9 C7         -2.2937   -4.2386    1.3838 C.ar      1 <0>        -0.2038
     10 C8         -2.7515   -5.2910    2.1536 C.ar      1 <0>        -0.0696
     11 C9         -1.9280   -5.8711    3.0975 C.ar      1 <0>        -0.1532
     12 C10        -0.6286   -5.3956    3.2765 C.ar      1 <0>         0.0601
     13 C11        -0.1642   -4.3381    2.4960 C.ar      1 <0>        -0.1918
     14 C12         0.2565   -6.0162    4.2890 C.2       1 <0>        -0.2139
     15 C13         1.5704   -6.4562    4.0860 C.2       1 <0>         0.1207
     16 N3          2.0304   -6.9469    5.2101 N.2       1 <0>        -0.3266
     17 N4          1.0411   -6.8499    6.1948 N.pl3     1 <0>        -0.3439
     18 C14        -0.0623   -6.2669    5.6297 C.2       1 <0>         0.3170
     19 N5         -1.1683   -6.0438    6.3480 N.2       1 <0>        -0.5013
     20 C15        -1.2368   -6.3713    7.6188 C.2       1 <0>         0.2341
     21 C16        -0.1353   -6.9689    8.2544 C.2       1 <0>        -0.2573
     22 C17         1.0174   -7.2133    7.5144 C.2       1 <0>         0.5024
     23 N6          2.1170   -7.7953    8.1013 N.pl3     1 <0>        -0.8238
     24 C18        -0.2033   -7.3409    9.6881 C.ar      1 <0>        -0.0417
     25 C19        -0.1297   -8.6810   10.0662 C.ar      1 <0>        -0.0933
     26 C20        -0.1926   -9.0242   11.4003 C.ar      1 <0>        -0.1142
     27 C21        -0.3298   -8.0360   12.3674 C.ar      1 <0>         0.1728
     28 C22        -0.4034   -6.6999   11.9933 C.ar      1 <0>        -0.1426
     29 C23        -0.3351   -6.3509   10.6610 C.ar      1 <0>        -0.0786
     30 N7         -0.3944   -8.3873   13.7208 N.am      1 <0>        -0.6886
     31 C24         0.3197   -9.4339   14.1803 C.2       1 <0>         0.7030
     32 O1          1.0956  -10.0109   13.4431 O.2       1 <0>        -0.5710
     33 N8          0.1738   -9.8408   15.4568 N.am      1 <0>        -0.7389
     34 C25         0.9500  -10.9785   15.9562 C.3       1 <0>         0.1407
     35 C26         0.5986  -11.2307   17.4238 C.3       1 <0>        -0.0989
     36 C27         1.0443  -10.0349   18.2678 C.3       1 <0>        -0.1149
     37 C28         0.6929  -10.2872   19.7353 C.3       1 <0>        -0.1204
     38 C29         1.4083  -11.5493   20.2214 C.3       1 <0>        -0.1222
     39 C30         0.9626  -12.7451   19.3774 C.3       1 <0>        -0.1192
     40 C31         1.3140  -12.4929   17.9098 C.3       1 <0>        -0.1121
     41 H1          0.8997    1.7841   -0.0550 H         1 <0>         0.0700
     42 H2         -0.6499    1.7528   -0.9302 H         1 <0>         0.0699
     43 H3         -0.6329    1.7557    0.8497 H         1 <0>         0.0254
     44 H4         -1.9975   -0.3900    0.7825 H         1 <0>         0.0382
     45 H5         -1.9663   -0.1821   -0.9855 H         1 <0>         0.0848
     46 H6         -2.3697   -2.5692   -0.2605 H         1 <0>         0.0873
     47 H7         -0.9139   -2.3731   -1.2717 H         1 <0>         0.0687
     48 H8          1.2013   -2.4968    1.9370 H         1 <0>         0.0860
     49 H9          1.4425   -2.3253    0.1784 H         1 <0>         0.0686
     50 H10         1.5965   -0.1099    1.2070 H         1 <0>         0.0845
     51 H11         0.0388   -0.3488    2.0356 H         1 <0>         0.0381
     52 H12        -2.9426   -3.7881    0.6473 H         1 <0>         0.1187
     53 H13        -3.7571   -5.6606    2.0166 H         1 <0>         0.1193
     54 H14        -2.2897   -6.6929    3.6977 H         1 <0>         0.1155
     55 H15         0.8424   -3.9693    2.6272 H         1 <0>         0.1194
     56 H16         2.1149   -6.4007    3.1550 H         1 <0>         0.1987
     57 H17        -2.1419   -6.1803    8.1762 H         1 <0>         0.1775
     58 H18         2.9195   -7.9518    7.5793 H         1 <0>         0.4169
     59 H19         2.0900   -8.0492    9.0371 H         1 <0>         0.4257
     60 H20        -0.0237   -9.4495    9.3148 H         1 <0>         0.1253
     61 H21        -0.1357  -10.0620   11.6936 H         1 <0>         0.1370
     62 H22        -0.5100   -5.9338   12.7470 H         1 <0>         0.1289
     63 H23        -0.3883   -5.3119   10.3711 H         1 <0>         0.1303
     64 H24        -0.9532   -7.8774   14.3281 H         1 <0>         0.4078
     65 H25        -0.4452   -9.3805   16.0449 H         1 <0>         0.3980
     66 H26         0.7139  -11.8655   15.3684 H         1 <0>         0.0696
     67 H27         2.0140  -10.7582   15.8701 H         1 <0>         0.0693
     68 H28        -0.4788  -11.3632   17.5218 H         1 <0>         0.0779
     69 H29         2.1218   -9.9024   18.1697 H         1 <0>         0.0655
     70 H30         0.5347   -9.1357   17.9215 H         1 <0>         0.0597
     71 H31         1.0105   -9.4353   20.3366 H         1 <0>         0.0626
     72 H32        -0.3845  -10.4196   19.8334 H         1 <0>         0.0619
     73 H33         2.4857  -11.4168   20.1233 H         1 <0>         0.0623
     74 H34         1.1579  -11.7290   21.2669 H         1 <0>         0.0620
     75 H35         1.4722  -13.6443   19.7237 H         1 <0>         0.0645
     76 H36        -0.1149  -12.8776   19.4754 H         1 <0>         0.0623
     77 H37         0.9964  -13.3448   17.3086 H         1 <0>         0.0665
     78 H38         2.3914  -12.3604   17.8118 H         1 <0>         0.0667
@<TRIPOS>BOND
     1    1    2 1
     2    1   41 1
     3    1   42 1
     4    1   43 1
     5    2    7 1
     6    2    3 1
     7    3    4 1
     8    3   44 1
     9    3   45 1
    10    4    5 1
    11    4   46 1
    12    4   47 1
    13    5    6 1
    14    5    8 1
    15    6    7 1
    16    6   48 1
    17    6   49 1
    18    7   50 1
    19    7   51 1
    20    8   13 ar
    21    8    9 ar
    22    9   10 ar
    23    9   52 1
    24   10   11 ar
    25   10   53 1
    26   11   12 ar
    27   11   54 1
    28   12   13 ar
    29   12   14 1
    30   13   55 1
    31   14   18 2
    32   14   15 1
    33   15   16 2
    34   15   56 1
    35   16   17 1
    36   17   22 1
    37   17   18 1
    38   18   19 1
    39   19   20 2
    40   20   21 1
    41   20   57 1
    42   21   22 2
    43   21   24 1
    44   22   23 1
    45   23   58 1
    46   23   59 1
    47   24   29 ar
    48   24   25 ar
    49   25   26 ar
    50   25   60 1
    51   26   27 ar
    52   26   61 1
    53   27   28 ar
    54   27   30 1
    55   28   29 ar
    56   28   62 1
    57   29   63 1
    58   30   31 am
    59   30   64 1
    60   31   32 2
    61   31   33 am
    62   33   34 1
    63   33   65 1
    64   34   35 1
    65   34   66 1
    66   34   67 1
    67   35   40 1
    68   35   36 1
    69   35   68 1
    70   36   37 1
    71   36   69 1
    72   36   70 1
    73   37   38 1
    74   37   71 1
    75   37   72 1
    76   38   39 1
    77   38   73 1
    78   38   74 1
    79   39   40 1
    80   39   75 1
    81   39   76 1
    82   40   77 1
    83   40   78 1
@<TRIPOS>MOLECULE
CHEMBL1085061
   70    75     0     0     0
SMALL
USER_CHARGES

@<TRIPOS>ATOM
      1 C1         -0.0278    1.4515   -0.0080 C.3       1 <0>        -0.0469
      2 N1         -0.0085   -0.0174   -0.0106 N.4       1 <0>        -0.3835
      3 C2         -1.3870   -0.5232   -0.0108 C.3       1 <0>        -0.0236
      4 C3         -1.3695   -2.0508   -0.1291 C.3       1 <0>         0.1000
      5 N2         -0.5243   -2.5921    0.9464 N.pl3     1 <0>        -0.6458
      6 C4          0.8213   -2.0242    1.1230 C.3       1 <0>         0.1001
      7 C5          0.7003   -0.4979    1.1822 C.3       1 <0>        -0.0232
      8 C6         -0.9864   -3.6160    1.7766 C.ar      1 <0>         0.1964
      9 C7         -2.2973   -4.0654    1.6628 C.ar      1 <0>        -0.1928
     10 C8         -2.7586   -5.0781    2.4822 C.ar      1 <0>        -0.0686
     11 C9         -1.9209   -5.6500    3.4186 C.ar      1 <0>        -0.1332
     12 C10        -0.6038   -5.2063    3.5401 C.ar      1 <0>         0.0709
     13 C11        -0.1363   -4.1884    2.7104 C.ar      1 <0>        -0.1812
     14 C12         0.2966   -5.8185    4.5442 C.2       1 <0>        -0.2365
     15 C13         1.5905   -6.3024    4.3145 C.2       1 <0>         0.1225
     16 N3          2.0735   -6.7687    5.4393 N.2       1 <0>        -0.3232
     17 N4          1.1202   -6.6109    6.4511 N.pl3     1 <0>        -0.3427
     18 C14         0.0151   -6.0159    5.9021 C.2       1 <0>         0.3270
     19 N5         -1.0602   -5.7377    6.6473 N.2       1 <0>        -0.5098
     20 C15        -1.0958   -6.0208    7.9300 C.2       1 <0>         0.2407
     21 C16         0.0092   -6.6282    8.5501 C.2       1 <0>        -0.2509
     22 C17         1.1301   -6.9292    7.7826 C.2       1 <0>         0.5042
     23 N6          2.2322   -7.5222    8.3536 N.pl3     1 <0>        -0.8197
     24 C18        -0.0217   -6.9504    9.9972 C.ar      1 <0>        -0.0471
     25 C19         0.0275   -8.2787   10.4181 C.ar      1 <0>        -0.0917
     26 C20        -0.0010   -8.5756   11.7644 C.ar      1 <0>        -0.1122
     27 C21        -0.0786   -7.5523   12.7012 C.ar      1 <0>         0.1742
     28 C22        -0.1277   -6.2278   12.2844 C.ar      1 <0>        -0.1393
     29 C23        -0.0942   -5.9252   10.9395 C.ar      1 <0>        -0.0775
     30 N7         -0.1078   -7.8565   14.0671 N.am      1 <0>        -0.6823
     31 C24         0.5920   -8.9074   14.5387 C.2       1 <0>         0.7087
     32 O1          1.3268   -9.5306   13.7969 O.2       1 <0>        -0.5522
     33 N8          0.4773   -9.2675   15.8323 N.am      1 <0>        -0.6774
     34 C25         1.1295  -10.4146   16.3000 C.ar      1 <0>         0.1683
     35 C26         2.3672  -10.7714   15.7818 C.ar      1 <0>        -0.1090
     36 C27         3.0085  -11.9034   16.2455 C.ar      1 <0>        -0.0951
     37 C28         2.4194  -12.6817   17.2252 C.ar      1 <0>        -0.1190
     38 C29         1.1869  -12.3302   17.7436 C.ar      1 <0>        -0.0907
     39 C30         0.5423  -11.1954   17.2880 C.ar      1 <0>        -0.0638
     40 Cl1        -1.0018  -10.7501   17.9446 Cl        1 <0>        -0.0637
     41 H1          0.9950    1.8282   -0.0160 H         1 <0>         0.1244
     42 H2         -0.5537    1.8095   -0.8931 H         1 <0>         0.1247
     43 H3         -0.5388    1.8066    0.8868 H         1 <0>         0.1213
     44 H4         -1.8796   -0.2362    0.9183 H         1 <0>         0.1322
     45 H5         -1.9295   -0.0994   -0.8559 H         1 <0>         0.1399
     46 H6         -2.3835   -2.4376   -0.0279 H         1 <0>         0.1273
     47 H7         -0.9595   -2.3385   -1.0972 H         1 <0>         0.0863
     48 H8          1.2556   -2.3935    2.0520 H         1 <0>         0.1262
     49 H9          1.4525   -2.3093    0.2813 H         1 <0>         0.0863
     50 H10         1.6959   -0.0555    1.2162 H         1 <0>         0.1395
     51 H11         0.1446   -0.2117    2.0752 H         1 <0>         0.1321
     52 H12        -2.9571   -3.6213    0.9321 H         1 <0>         0.1195
     53 H13        -3.7778   -5.4231    2.3898 H         1 <0>         0.1268
     54 H14        -2.2854   -6.4408    4.0576 H         1 <0>         0.1233
     55 H15         0.8834   -3.8437    2.7977 H         1 <0>         0.1206
     56 H16         2.1055   -6.2932    3.3652 H         1 <0>         0.1972
     57 H17        -1.9764   -5.7856    8.5093 H         1 <0>         0.1803
     58 H18         3.0124   -7.7189    7.8118 H         1 <0>         0.4183
     59 H19         2.2291   -7.7438    9.2979 H         1 <0>         0.4280
     60 H20         0.0874   -9.0744    9.6904 H         1 <0>         0.1265
     61 H21         0.0367   -9.6043   12.0910 H         1 <0>         0.1395
     62 H22        -0.1884   -5.4343   13.0146 H         1 <0>         0.1316
     63 H23        -0.1280   -4.8953   10.6162 H         1 <0>         0.1308
     64 H24        -0.6317   -7.3108   14.6744 H         1 <0>         0.4117
     65 H25        -0.0571   -8.7319   16.4393 H         1 <0>         0.4115
     66 H26         2.8280  -10.1645   15.0164 H         1 <0>         0.1501
     67 H27         3.9710  -12.1813   15.8423 H         1 <0>         0.1344
     68 H28         2.9232  -13.5663   17.5859 H         1 <0>         0.1359
     69 H29         0.7293  -12.9403   18.5084 H         1 <0>         0.1397
     70 H30         0.4674   -0.3449   -0.8379 H         1 <0>         0.4242
@<TRIPOS>BOND
     1    1    2 1
     2    1   41 1
     3    1   42 1
     4    1   43 1
     5    2    7 1
     6    2    3 1
     7    2   70 1
     8    3    4 1
     9    3   44 1
    10    3   45 1
    11    4    5 1
    12    4   46 1
    13    4   47 1
    14    5    6 1
    15    5    8 1
    16    6    7 1
    17    6   48 1
    18    6   49 1
    19    7   50 1
    20    7   51 1
    21    8   13 ar
    22    8    9 ar
    23    9   10 ar
    24    9   52 1
    25   10   11 ar
    26   10   53 1
    27   11   12 ar
    28   11   54 1
    29   12   13 ar
    30   12   14 1
    31   13   55 1
    32   14   18 2
    33   14   15 1
    34   15   16 2
    35   15   56 1
    36   16   17 1
    37   17   22 1
    38   17   18 1
    39   18   19 1
    40   19   20 2
    41   20   21 1
    42   20   57 1
    43   21   22 2
    44   21   24 1
    45   22   23 1
    46   23   58 1
    47   23   59 1
    48   24   29 ar
    49   24   25 ar
    50   25   26 ar
    51   25   60 1
    52   26   27 ar
    53   26   61 1
    54   27   28 ar
    55   27   30 1
    56   28   29 ar
    57   28   62 1
    58   29   63 1
    59   30   31 am
    60   30   64 1
    61   31   32 2
    62   31   33 am
    63   33   34 1
    64   33   65 1
    65   34   39 ar
    66   34   35 ar
    67   35   36 ar
    68   35   66 1
    69   36   37 ar
    70   36   67 1
    71   37   38 ar
    72   37   68 1
    73   38   39 ar
    74   38   69 1
    75   39   40 1
@<TRIPOS>MOLECULE
CHEMBL1085061__1
   69    74     0     0     0
SMALL
USER_CHARGES

@<TRIPOS>ATOM
      1 C1         -0.0276    1.4517   -0.0094 C.3       1 <0>         0.0244
      2 N1         -0.0083   -0.0171   -0.0118 N.3       1 <0>        -0.5425
      3 C2         -1.3696   -0.5614   -0.1046 C.3       1 <0>         0.0382
      4 C3         -1.2972   -2.0812   -0.2865 C.3       1 <0>         0.1266
      5 N2         -0.4754   -2.6427    0.7963 N.pl3     1 <0>        -0.6331
      6 C4          0.8507   -2.0551    1.0398 C.3       1 <0>         0.1270
      7 C5          0.6938   -0.5363    1.1695 C.3       1 <0>         0.0386
      8 C6         -0.9418   -3.7063    1.5726 C.ar      1 <0>         0.2209
      9 C7         -2.2380   -4.1784    1.3982 C.ar      1 <0>        -0.2036
     10 C8         -2.7035   -5.2304    2.1640 C.ar      1 <0>        -0.0695
     11 C9         -1.8848   -5.8189    3.1069 C.ar      1 <0>        -0.1532
     12 C10        -0.5826   -5.3525    3.2890 C.ar      1 <0>         0.0596
     13 C11        -0.1107   -4.2949    2.5132 C.ar      1 <0>        -0.1918
     14 C12         0.2975   -5.9826    4.3000 C.2       1 <0>        -0.2127
     15 C13         1.6087   -6.4303    4.0968 C.2       1 <0>         0.1209
     16 N3          2.0645   -6.9278    5.2196 N.2       1 <0>        -0.3262
     17 N4          1.0750   -6.8278    6.2036 N.pl3     1 <0>        -0.3440
     18 C14        -0.0242   -6.2361    5.6395 C.2       1 <0>         0.3164
     19 N5         -1.1295   -6.0084    6.3576 N.2       1 <0>        -0.5005
     20 C15        -1.2012   -6.3396    7.6272 C.2       1 <0>         0.2343
     21 C16        -0.1041   -6.9463    8.2617 C.2       1 <0>        -0.2592
     22 C17         1.0479   -7.1950    7.5222 C.2       1 <0>         0.5032
     23 N6          2.1434   -7.7856    8.1082 N.pl3     1 <0>        -0.8238
     24 C18        -0.1757   -7.3226    9.6942 C.ar      1 <0>        -0.0374
     25 C19        -0.1110   -8.6643   10.0680 C.ar      1 <0>        -0.0933
     26 C20        -0.1773   -9.0115   11.4008 C.ar      1 <0>        -0.1123
     27 C21        -0.3086   -8.0256   12.3711 C.ar      1 <0>         0.1678
     28 C22        -0.3733   -6.6878   12.0014 C.ar      1 <0>        -0.1385
     29 C23        -0.3021   -6.3349   10.6702 C.ar      1 <0>        -0.0789
     30 N7         -0.3762   -8.3808   13.7233 N.am      1 <0>        -0.6811
     31 C24         0.3308   -9.4336   14.1796 C.2       1 <0>         0.7082
     32 O1          1.1034  -10.0133   13.4410 O.2       1 <0>        -0.5519
     33 N8          0.1813   -9.8439   15.4547 N.am      1 <0>        -0.6787
     34 C25         0.8430  -10.9936   15.9021 C.ar      1 <0>         0.1707
     35 C26         2.1049  -11.3048   15.4135 C.ar      1 <0>        -0.1089
     36 C27         2.7554  -12.4395   15.8571 C.ar      1 <0>        -0.0949
     37 C28         2.1518  -13.2659   16.7873 C.ar      1 <0>        -0.1207
     38 C29         0.8952  -12.9599   17.2761 C.ar      1 <0>        -0.0913
     39 C30         0.2409  -11.8228   16.8406 C.ar      1 <0>        -0.0646
     40 Cl1        -1.3336  -11.4347   17.4602 Cl        1 <0>        -0.0646
     41 H1          0.9952    1.8286   -0.0170 H         1 <0>         0.0700
     42 H2         -0.5532    1.8096   -0.8947 H         1 <0>         0.0699
     43 H3         -0.5390    1.8069    0.8852 H         1 <0>         0.0253
     44 H4         -1.9168   -0.3301    0.8092 H         1 <0>         0.0382
     45 H5         -1.8816   -0.1169   -0.9581 H         1 <0>         0.0849
     46 H6         -2.3010   -2.5036   -0.2411 H         1 <0>         0.0874
     47 H7         -0.8423   -2.3135   -1.2495 H         1 <0>         0.0688
     48 H8          1.2670   -2.4603    1.9622 H         1 <0>         0.0860
     49 H9          1.5121   -2.2848    0.2044 H         1 <0>         0.0687
     50 H10         1.6782   -0.0736    1.2401 H         1 <0>         0.0845
     51 H11         0.1178   -0.3054    2.0656 H         1 <0>         0.0381
     52 H12        -2.8829   -3.7215    0.6623 H         1 <0>         0.1189
     53 H13        -3.7112   -5.5930    2.0247 H         1 <0>         0.1194
     54 H14        -2.2525   -6.6404    3.7039 H         1 <0>         0.1155
     55 H15         0.8978   -3.9324    2.6474 H         1 <0>         0.1195
     56 H16         2.1545   -6.3751    3.1665 H         1 <0>         0.1989
     57 H17        -2.1056   -6.1447    8.1844 H         1 <0>         0.1775
     58 H18         2.9453   -7.9456    7.5863 H         1 <0>         0.4171
     59 H19         2.1140   -8.0421    9.0432 H         1 <0>         0.4253
     60 H20        -0.0093   -9.4310    9.3142 H         1 <0>         0.1264
     61 H21        -0.1276  -10.0506   11.6908 H         1 <0>         0.1377
     62 H22        -0.4757   -5.9235   12.7574 H         1 <0>         0.1303
     63 H23        -0.3480   -5.2946   10.3837 H         1 <0>         0.1316
     64 H24        -0.9318   -7.8692   14.3319 H         1 <0>         0.4108
     65 H25        -0.3847   -9.3427   16.0623 H         1 <0>         0.4111
     66 H26         2.5771  -10.6603   14.6868 H         1 <0>         0.1508
     67 H27         3.7368  -12.6819   15.4769 H         1 <0>         0.1341
     68 H28         2.6629  -14.1525   17.1324 H         1 <0>         0.1350
     69 H29         0.4263  -13.6075   18.0021 H         1 <0>         0.1387
@<TRIPOS>BOND
     1    1    2 1
     2    1   41 1
     3    1   42 1
     4    1   43 1
     5    2    7 1
     6    2    3 1
     7    3    4 1
     8    3   44 1
     9    3   45 1
    10    4    5 1
    11    4   46 1
    12    4   47 1
    13    5    6 1
    14    5    8 1
    15    6    7 1
    16    6   48 1
    17    6   49 1
    18    7   50 1
    19    7   51 1
    20    8   13 ar
    21    8    9 ar
    22    9   10 ar
    23    9   52 1
    24   10   11 ar
    25   10   53 1
    26   11   12 ar
    27   11   54 1
    28   12   13 ar
    29   12   14 1
    30   13   55 1
    31   14   18 2
    32   14   15 1
    33   15   16 2
    34   15   56 1
    35   16   17 1
    36   17   22 1
    37   17   18 1
    38   18   19 1
    39   19   20 2
    40   20   21 1
    41   20   57 1
    42   21   22 2
    43   21   24 1
    44   22   23 1
    45   23   58 1
    46   23   59 1
    47   24   29 ar
    48   24   25 ar
    49   25   26 ar
    50   25   60 1
    51   26   27 ar
    52   26   61 1
    53   27   28 ar
    54   27   30 1
    55   28   29 ar
    56   28   62 1
    57   29   63 1
    58   30   31 am
    59   30   64 1
    60   31   32 2
    61   31   33 am
    62   33   34 1
    63   33   65 1
    64   34   39 ar
    65   34   35 ar
    66   35   36 ar
    67   35   66 1
    68   36   37 ar
    69   36   67 1
    70   37   38 ar
    71   37   68 1
    72   38   39 ar
    73   38   69 1
    74   39   40 1
@<TRIPOS>MOLECULE
CHEMBL26147
   60    64     0     0     0
SMALL
USER_CHARGES

@<TRIPOS>ATOM
      1 C1          0.1199    0.9011    3.4907 C.3       1 <0>        -0.1239
      2 C2          0.2213   -0.5475    3.0875 C.2       1 <0>         0.1377
      3 C3         -0.7443   -1.3968    3.4747 C.2       1 <0>        -0.1599
      4 C4         -0.6601   -2.8067    3.0905 C.ar      1 <0>         0.0283
      5 C5         -1.6391   -3.7318    3.4673 C.ar      1 <0>        -0.1340
      6 C6         -1.5309   -5.0372    3.0932 C.ar      1 <0>        -0.0281
      7 C7         -0.4414   -5.4761    2.3265 C.ar      1 <0>         0.0623
      8 C8          0.5528   -4.5678    1.9358 C.ar      1 <0>         0.1040
      9 C9          0.4472   -3.2254    2.3177 C.ar      1 <0>        -0.1399
     10 C10         1.4503   -2.2277    1.9428 C.2       1 <0>         0.5470
     11 N1          1.2892   -0.9490    2.3365 N.am      1 <0>        -0.6212
     12 O1          2.4189   -2.5491    1.2773 O.2       1 <0>        -0.5398
     13 N2          1.4727   -5.2905    1.2054 N.pl3     1 <0>        -0.4913
     14 C11         1.0354   -6.5840    1.1660 C.2       1 <0>         0.5364
     15 N3         -0.0904   -6.6904    1.8261 N.2       1 <0>        -0.5138
     16 N4          1.6829   -7.6225    0.5267 N.pl3     1 <0>        -0.6562
     17 C12         1.1976   -8.9294    0.6470 C.ar      1 <0>         0.1768
     18 C13        -0.0020   -9.2852    0.0425 C.ar      1 <0>        -0.0093
     19 C14        -0.4781  -10.5773    0.1631 C.ar      1 <0>        -0.0998
     20 C15         0.2377  -11.5152    0.8841 C.ar      1 <0>        -0.0901
     21 C16         1.4316  -11.1646    1.4874 C.ar      1 <0>        -0.1001
     22 C17         1.9168   -9.8760    1.3664 C.ar      1 <0>        -0.0283
     23 Cl1         3.4196   -9.4391    2.1177 Cl        1 <0>        -0.0485
     24 Cl2        -0.9018   -8.1084   -0.8626 Cl        1 <0>        -0.0394
     25 C18         2.6930   -4.7676    0.5861 C.3       1 <0>         0.0857
     26 C19        -1.9052   -0.9022    4.2987 C.3       1 <0>        -0.0468
     27 C20        -3.0788   -0.5664    3.3763 C.3       1 <0>        -0.1371
     28 C21        -4.2397   -0.0718    4.2003 C.2       1 <0>         0.5172
     29 O2         -4.1383    0.0045    5.4064 O.2       1 <0>        -0.5344
     30 N5         -5.3906    0.2856    3.5968 N.am      1 <0>        -0.6192
     31 C22        -5.5393    0.1958    2.1356 C.3       1 <0>         0.0705
     32 C23        -6.8335   -0.5658    1.8272 C.3       1 <0>         0.0453
     33 O3         -7.9160    0.0379    2.5397 O.3       1 <0>        -0.3780
     34 C24        -7.7813   -0.0131    3.9620 C.3       1 <0>         0.0469
     35 C25        -6.5376    0.7714    4.3802 C.3       1 <0>         0.0753
     36 H1          0.9745    1.4493    3.0943 H         1 <0>         0.0723
     37 H2         -0.8012    1.3257    3.0914 H         1 <0>         0.0879
     38 H3          0.1128    0.9759    4.5781 H         1 <0>         0.0928
     39 H4         -2.4842   -3.4099    4.0577 H         1 <0>         0.1384
     40 H5         -2.2927   -5.7426    3.3908 H         1 <0>         0.1350
     41 H6          2.4743   -7.4461   -0.0058 H         1 <0>         0.4212
     42 H7         -1.4105  -10.8545   -0.3062 H         1 <0>         0.1446
     43 H8         -0.1367  -12.5240    0.9767 H         1 <0>         0.1462
     44 H9          1.9878  -11.8998    2.0501 H         1 <0>         0.1448
     45 H10         3.4314   -4.5568    1.3597 H         1 <0>         0.0774
     46 H11         3.0941   -5.5069   -0.1072 H         1 <0>         0.0641
     47 H12         2.4615   -3.8501    0.0450 H         1 <0>         0.1132
     48 H13        -2.2070   -1.6772    5.0032 H         1 <0>         0.0863
     49 H14        -1.6069   -0.0087    4.8471 H         1 <0>         0.0858
     50 H15        -2.7771    0.2086    2.6718 H         1 <0>         0.0948
     51 H16        -3.3771   -1.4599    2.8279 H         1 <0>         0.0981
     52 H17        -5.5926    1.1977    1.7097 H         1 <0>         0.0805
     53 H18        -4.6890   -0.3388    1.7122 H         1 <0>         0.0973
     54 H19        -7.0341   -0.5242    0.7566 H         1 <0>         0.1085
     55 H20        -6.7274   -1.6050    2.1385 H         1 <0>         0.0584
     56 H21        -8.6638    0.4260    4.4273 H         1 <0>         0.1086
     57 H22        -7.6786   -1.0503    4.2810 H         1 <0>         0.0570
     58 H23        -6.3480    0.6178    5.4425 H         1 <0>         0.1032
     59 H24        -6.6931    1.8323    4.1842 H         1 <0>         0.0763
     60 H25         1.9560   -0.2924    2.0811 H         1 <0>         0.4134
@<TRIPOS>BOND
     1    1    2 1
     2    1   36 1
     3    1   37 1
     4    1   38 1
     5    2   11 1
     6    2    3 2
     7    3    4 1
     8    3   26 1
     9    4    9 ar
    10    4    5 ar
    11    5    6 ar
    12    5   39 1
    13    6    7 ar
    14    6   40 1
    15    7   15 1
    16    7    8 ar
    17    8    9 ar
    18    8   13 1
    19    9   10 1
    20   10   11 am
    21   10   12 2
    22   11   60 1
    23   13   14 1
    24   13   25 1
    25   14   15 2
    26   14   16 1
    27   16   17 1
    28   16   41 1
    29   17   22 ar
    30   17   18 ar
    31   18   19 ar
    32   18   24 1
    33   19   20 ar
    34   19   42 1
    35   20   21 ar
    36   20   43 1
    37   21   22 ar
    38   21   44 1
    39   22   23 1
    40   25   45 1
    41   25   46 1
    42   25   47 1
    43   26   27 1
    44   26   48 1
    45   26   49 1
    46   27   28 1
    47   27   50 1
    48   27   51 1
    49   28   29 2
    50   28   30 am
    51   30   35 1
    52   30   31 1
    53   31   32 1
    54   31   52 1
    55   31   53 1
    56   32   33 1
    57   32   54 1
    58   32   55 1
    59   33   34 1
    60   34   35 1
    61   34   56 1
    62   34   57 1
    63   35   58 1
    64   35   59 1
@<TRIPOS>MOLECULE
CHEMBL1084233
   70    75     0     0     0
SMALL
USER_CHARGES

@<TRIPOS>ATOM
      1 C1          0.0023    1.4586   -0.0049 C.3       1 <0>        -0.0467
      2 N1          0.0218   -0.0103   -0.0092 N.4       1 <0>        -0.3837
      3 C2         -1.3566   -0.5163   -0.0095 C.3       1 <0>        -0.0232
      4 C3         -1.3388   -2.0438   -0.1297 C.3       1 <0>         0.0996
      5 N2         -0.4931   -2.5862    0.9449 N.pl3     1 <0>        -0.6461
      6 C4          0.8524   -2.0183    1.1217 C.3       1 <0>         0.1001
      7 C5          0.7312   -0.4921    1.1827 C.3       1 <0>        -0.0228
      8 C6         -0.9551   -3.6121    1.7748 C.ar      1 <0>         0.1872
      9 C7         -2.2656   -4.0601    1.6598 C.ar      1 <0>        -0.1819
     10 C8         -2.7241   -5.0715    2.4775 C.ar      1 <0>        -0.0670
     11 C9         -1.8711   -5.6453    3.4201 C.ar      1 <0>        -0.0120
     12 C10        -0.5561   -5.1940    3.5329 C.ar      1 <0>        -0.0503
     13 C11        -0.1014   -4.1859    2.7092 C.ar      1 <0>        -0.1799
     14 C12        -2.3611   -6.7320    4.3004 C.2       1 <0>        -0.2253
     15 C13        -3.5398   -6.7211    5.0554 C.2       1 <0>         0.1197
     16 N3         -3.6362   -7.8545    5.7060 N.2       1 <0>        -0.3230
     17 N4         -2.5279   -8.6538    5.4057 N.pl3     1 <0>        -0.3433
     18 C14        -1.7343   -7.9633    4.5272 C.2       1 <0>         0.3198
     19 N5         -0.5984   -8.4942    4.0605 N.2       1 <0>        -0.5108
     20 C15        -0.2044   -9.6940    4.4228 C.2       1 <0>         0.2389
     21 C16        -0.9785  -10.4515    5.3186 C.2       1 <0>        -0.2537
     22 C17        -2.1572   -9.9061    5.8170 C.2       1 <0>         0.5047
     23 N6         -2.9431  -10.6174    6.6940 N.pl3     1 <0>        -0.8204
     24 C18        -0.5413  -11.8065    5.7327 C.ar      1 <0>        -0.0451
     25 C19        -0.2074  -12.0563    7.0632 C.ar      1 <0>        -0.0925
     26 C20         0.1990  -13.3172    7.4458 C.ar      1 <0>        -0.1125
     27 C21         0.2759  -14.3384    6.5067 C.ar      1 <0>         0.1729
     28 C22        -0.0559  -14.0921    5.1801 C.ar      1 <0>        -0.1389
     29 C23        -0.4688  -12.8345    4.7935 C.ar      1 <0>        -0.0777
     30 N7          0.6887  -15.6174    6.8976 N.am      1 <0>        -0.6821
     31 C24         0.3581  -16.0891    8.1161 C.2       1 <0>         0.7086
     32 O1         -0.3812  -15.4467    8.8367 O.2       1 <0>        -0.5522
     33 N8          0.8469  -17.2729    8.5358 N.am      1 <0>        -0.6776
     34 C25         0.5809  -17.7187    9.8360 C.ar      1 <0>         0.1686
     35 C26        -0.6394  -17.4330   10.4335 C.ar      1 <0>        -0.1089
     36 C27        -0.8991  -17.8745   11.7162 C.ar      1 <0>        -0.0950
     37 C28         0.0545  -18.6006   12.4060 C.ar      1 <0>        -0.1193
     38 C29         1.2710  -18.8873   11.8146 C.ar      1 <0>        -0.0909
     39 C30         1.5354  -18.4530   10.5292 C.ar      1 <0>        -0.0639
     40 Cl1         3.0601  -18.8191    9.7844 Cl        1 <0>        -0.0640
     41 H1          1.0250    1.8355   -0.0128 H         1 <0>         0.1245
     42 H2         -0.5240    1.8175   -0.8893 H         1 <0>         0.1245
     43 H3         -0.5085    1.8125    0.8905 H         1 <0>         0.1213
     44 H4         -1.8488   -0.2306    0.9200 H         1 <0>         0.1321
     45 H5         -1.8995   -0.0916   -0.8539 H         1 <0>         0.1397
     46 H6         -2.3527   -2.4309   -0.0285 H         1 <0>         0.1269
     47 H7         -0.9291   -2.3303   -1.0982 H         1 <0>         0.0860
     48 H8          1.2872   -2.3887    2.0501 H         1 <0>         0.1266
     49 H9          1.4834   -2.3023    0.2794 H         1 <0>         0.0859
     50 H10         1.7267   -0.0495    1.2169 H         1 <0>         0.1397
     51 H11         0.1758   -0.2071    2.0762 H         1 <0>         0.1321
     52 H12        -2.9257   -3.6154    0.9298 H         1 <0>         0.1214
     53 H13        -3.7429   -5.4187    2.3882 H         1 <0>         0.1262
     54 H14         0.1064   -5.6363    4.2622 H         1 <0>         0.1253
     55 H15         0.9180   -3.8391    2.7931 H         1 <0>         0.1212
     56 H16        -4.2529   -5.9109    5.0954 H         1 <0>         0.1979
     57 H17         0.7168  -10.0995    4.0310 H         1 <0>         0.1789
     58 H18        -3.7688  -10.2324    7.0271 H         1 <0>         0.4182
     59 H19        -2.6715  -11.5038    6.9793 H         1 <0>         0.4274
     60 H20        -0.2666  -11.2628    7.7935 H         1 <0>         0.1260
     61 H21         0.4581  -13.5112    8.4761 H         1 <0>         0.1390
     62 H22         0.0050  -14.8874    4.4520 H         1 <0>         0.1315
     63 H23        -0.7312  -12.6447    3.7632 H         1 <0>         0.1312
     64 H24         1.2127  -16.1643    6.2916 H         1 <0>         0.4115
     65 H25         1.3830  -17.8161    7.9371 H         1 <0>         0.4114
     66 H26        -1.3848  -16.8657    9.8959 H         1 <0>         0.1503
     67 H27        -1.8482  -17.6521   12.1812 H         1 <0>         0.1344
     68 H28        -0.1513  -18.9443   13.4089 H         1 <0>         0.1358
     69 H29         2.0136  -19.4546   12.3559 H         1 <0>         0.1395
     70 H30         0.4975   -0.3367   -0.8371 H         1 <0>         0.4244
@<TRIPOS>BOND
     1    1    2 1
     2    1   41 1
     3    1   42 1
     4    1   43 1
     5    2    7 1
     6    2    3 1
     7    2   70 1
     8    3    4 1
     9    3   44 1
    10    3   45 1
    11    4    5 1
    12    4   46 1
    13    4   47 1
    14    5    6 1
    15    5    8 1
    16    6    7 1
    17    6   48 1
    18    6   49 1
    19    7   50 1
    20    7   51 1
    21    8   13 ar
    22    8    9 ar
    23    9   10 ar
    24    9   52 1
    25   10   11 ar
    26   10   53 1
    27   11   12 ar
    28   11   14 1
    29   12   13 ar
    30   12   54 1
    31   13   55 1
    32   14   18 2
    33   14   15 1
    34   15   16 2
    35   15   56 1
    36   16   17 1
    37   17   22 1
    38   17   18 1
    39   18   19 1
    40   19   20 2
    41   20   21 1
    42   20   57 1
    43   21   22 2
    44   21   24 1
    45   22   23 1
    46   23   58 1
    47   23   59 1
    48   24   29 ar
    49   24   25 ar
    50   25   26 ar
    51   25   60 1
    52   26   27 ar
    53   26   61 1
    54   27   28 ar
    55   27   30 1
    56   28   29 ar
    57   28   62 1
    58   29   63 1
    59   30   31 am
    60   30   64 1
    61   31   32 2
    62   31   33 am
    63   33   34 1
    64   33   65 1
    65   34   39 ar
    66   34   35 ar
    67   35   36 ar
    68   35   66 1
    69   36   37 ar
    70   36   67 1
    71   37   38 ar
    72   37   68 1
    73   38   39 ar
    74   38   69 1
    75   39   40 1
@<TRIPOS>MOLECULE
CHEMBL1084233__1
   69    74     0     0     0
SMALL
USER_CHARGES

@<TRIPOS>ATOM
      1 C1          0.0025    1.4594   -0.0050 C.3       1 <0>         0.0244
      2 N1          0.0222   -0.0094   -0.0091 N.3       1 <0>        -0.5428
      3 C2         -1.3390   -0.5539   -0.1021 C.3       1 <0>         0.0385
      4 C3         -1.2663   -2.0735   -0.2858 C.3       1 <0>         0.1257
      5 N2         -0.4440   -2.6361    0.7961 N.pl3     1 <0>        -0.6325
      6 C4          0.8821   -2.0484    1.0398 C.3       1 <0>         0.1263
      7 C5          0.7248   -0.5298    1.1713 C.3       1 <0>         0.0388
      8 C6         -0.9103   -3.7015    1.5719 C.ar      1 <0>         0.2182
      9 C7         -2.2060   -4.1723    1.3965 C.ar      1 <0>        -0.1989
     10 C8         -2.6687   -5.2228    2.1607 C.ar      1 <0>        -0.0609
     11 C9         -1.8348   -5.8132    3.1102 C.ar      1 <0>        -0.0504
     12 C10        -0.5346   -5.3390    3.2838 C.ar      1 <0>        -0.0443
     13 C11        -0.0754   -4.2916    2.5132 C.ar      1 <0>        -0.1971
     14 C12        -2.3294   -6.9419    3.9332 C.2       1 <0>        -0.1965
     15 C13        -3.5324   -6.9838    4.6478 C.2       1 <0>         0.1143
     16 N3         -3.6250   -8.1424    5.2530 N.2       1 <0>        -0.3269
     17 N4         -2.4898   -8.9065    4.9615 N.pl3     1 <0>        -0.3445
     18 C14        -1.6833   -8.1674    4.1361 C.2       1 <0>         0.3070
     19 N5         -0.5210   -8.6566    3.6891 N.2       1 <0>        -0.5002
     20 C15        -0.1126   -9.8605    4.0206 C.2       1 <0>         0.2322
     21 C16        -0.8989  -10.6669    4.8614 C.2       1 <0>        -0.2608
     22 C17        -2.1053  -10.1651    5.3393 C.2       1 <0>         0.5025
     23 N6         -2.9038  -10.9249    6.1626 N.pl3     1 <0>        -0.8249
     24 C18        -0.4456  -12.0268    5.2405 C.ar      1 <0>        -0.0361
     25 C19        -0.1504  -12.3188    6.5716 C.ar      1 <0>        -0.0939
     26 C20         0.2710  -13.5843    6.9215 C.ar      1 <0>        -0.1124
     27 C21         0.4015  -14.5680    5.9490 C.ar      1 <0>         0.1670
     28 C22         0.1084  -14.2796    4.6218 C.ar      1 <0>        -0.1384
     29 C23        -0.3193  -13.0174    4.2675 C.ar      1 <0>        -0.0792
     30 N7          0.8295  -15.8518    6.3069 N.am      1 <0>        -0.6811
     31 C24         0.4694  -16.3752    7.4955 C.2       1 <0>         0.7082
     32 O1         -0.3074  -15.7757    8.2135 O.2       1 <0>        -0.5520
     33 N8          0.9703  -17.5632    7.8881 N.am      1 <0>        -0.6788
     34 C25         0.6714  -18.0624    9.1614 C.ar      1 <0>         0.1708
     35 C26        -0.5741  -17.8249    9.7272 C.ar      1 <0>        -0.1089
     36 C27        -0.8662  -18.3191   10.9834 C.ar      1 <0>        -0.0949
     37 C28         0.0800  -19.0501   11.6782 C.ar      1 <0>        -0.1208
     38 C29         1.3214  -19.2890   11.1184 C.ar      1 <0>        -0.0914
     39 C30         1.6185  -18.8017    9.8594 C.ar      1 <0>        -0.0647
     40 Cl1         3.1748  -19.1078    9.1539 Cl        1 <0>        -0.0647
     41 H1          1.0252    1.8365   -0.0126 H         1 <0>         0.0703
     42 H2         -0.5236    1.8182   -0.8897 H         1 <0>         0.0699
     43 H3         -0.5087    1.8134    0.8902 H         1 <0>         0.0255
     44 H4         -1.8860   -0.3238    0.8122 H         1 <0>         0.0383
     45 H5         -1.8515   -0.1085   -0.9548 H         1 <0>         0.0849
     46 H6         -2.2700   -2.4962   -0.2406 H         1 <0>         0.0873
     47 H7         -0.8118   -2.3045   -1.2492 H         1 <0>         0.0689
     48 H8          1.2988   -2.4546    1.9614 H         1 <0>         0.0870
     49 H9          1.5431   -2.2770    0.2038 H         1 <0>         0.0689
     50 H10         1.7091   -0.0670    1.2421 H         1 <0>         0.0851
     51 H11         0.1491   -0.3001    2.0679 H         1 <0>         0.0383
     52 H12        -2.8513   -3.7148    0.6612 H         1 <0>         0.1209
     53 H13        -3.6760   -5.5878    2.0244 H         1 <0>         0.1189
     54 H14         0.1131   -5.7940    4.0185 H         1 <0>         0.1180
     55 H15         0.9327   -3.9269    2.6442 H         1 <0>         0.1204
     56 H16        -4.2642   -6.1908    4.6931 H         1 <0>         0.1978
     57 H17         0.8298  -10.2318    3.6457 H         1 <0>         0.1765
     58 H18        -3.7484  -10.5700    6.4814 H         1 <0>         0.4167
     59 H19        -2.6221  -11.8154    6.4245 H         1 <0>         0.4249
     60 H20        -0.2514  -11.5544    7.3279 H         1 <0>         0.1261
     61 H21         0.5001  -13.8109    7.9523 H         1 <0>         0.1374
     62 H22         0.2110  -15.0459    3.8677 H         1 <0>         0.1302
     63 H23        -0.5517  -12.7951    3.2365 H         1 <0>         0.1317
     64 H24         1.3852  -16.3646    5.6994 H         1 <0>         0.4107
     65 H25         1.5379  -18.0723    7.2885 H         1 <0>         0.4111
     66 H26        -1.3136  -17.2538    9.1857 H         1 <0>         0.1508
     67 H27        -1.8348  -18.1341   11.4239 H         1 <0>         0.1341
     68 H28        -0.1512  -19.4350   12.6605 H         1 <0>         0.1349
     69 H29         2.0583  -19.8602   11.6636 H         1 <0>         0.1387
@<TRIPOS>BOND
     1    1    2 1
     2    1   41 1
     3    1   42 1
     4    1   43 1
     5    2    7 1
     6    2    3 1
     7    3    4 1
     8    3   44 1
     9    3   45 1
    10    4    5 1
    11    4   46 1
    12    4   47 1
    13    5    6 1
    14    5    8 1
    15    6    7 1
    16    6   48 1
    17    6   49 1
    18    7   50 1
    19    7   51 1
    20    8   13 ar
    21    8    9 ar
    22    9   10 ar
    23    9   52 1
    24   10   11 ar
    25   10   53 1
    26   11   12 ar
    27   11   14 1
    28   12   13 ar
    29   12   54 1
    30   13   55 1
    31   14   18 2
    32   14   15 1
    33   15   16 2
    34   15   56 1
    35   16   17 1
    36   17   22 1
    37   17   18 1
    38   18   19 1
    39   19   20 2
    40   20   21 1
    41   20   57 1
    42   21   22 2
    43   21   24 1
    44   22   23 1
    45   23   58 1
    46   23   59 1
    47   24   29 ar
    48   24   25 ar
    49   25   26 ar
    50   25   60 1
    51   26   27 ar
    52   26   61 1
    53   27   28 ar
    54   27   30 1
    55   28   29 ar
    56   28   62 1
    57   29   63 1
    58   30   31 am
    59   30   64 1
    60   31   32 2
    61   31   33 am
    62   33   34 1
    63   33   65 1
    64   34   39 ar
    65   34   35 ar
    66   35   36 ar
    67   35   66 1
    68   36   37 ar
    69   36   67 1
    70   37   38 ar
    71   37   68 1
    72   38   39 ar
    73   38   69 1
    74   39   40 1
@<TRIPOS>MOLECULE
CHEMBL220645
   59    63     0     0     0
SMALL
USER_CHARGES

@<TRIPOS>ATOM
      1 C1          0.7596    0.5173   -0.9862 C.3       1 <0>        -0.1158
      2 C2         -0.0824    1.2440    0.0306 C.ar      1 <0>        -0.1270
      3 C3         -0.4552    2.5556   -0.1922 C.ar      1 <0>        -0.0800
      4 C4         -1.2272    3.2248    0.7380 C.ar      1 <0>        -0.1593
      5 C5         -1.6309    2.5812    1.8998 C.ar      1 <0>         0.1220
      6 C6         -1.2592    1.2658    2.1271 C.ar      1 <0>        -0.1535
      7 C7         -0.4882    0.5930    1.1888 C.ar      1 <0>         0.1723
      8 N1         -0.1160   -0.7358    1.4118 N.pl3     1 <0>        -0.6367
      9 C8         -0.0385   -1.2263    2.7070 C.ar      1 <0>         0.4822
     10 C9          0.1885   -2.5814    2.9365 C.ar      1 <0>        -0.3159
     11 C10         0.2583   -3.0266    4.2506 C.ar      1 <0>         0.4253
     12 N2          0.1071   -2.1510    5.2397 N.ar      1 <0>        -0.6156
     13 C11        -0.1073   -0.8703    4.9855 C.ar      1 <0>         0.6215
     14 N3         -0.1746   -0.4081    3.7474 N.ar      1 <0>        -0.5924
     15 N4         -0.2609    0.0154    6.0489 N.pl3     1 <0>        -0.4293
     16 C12        -0.4924    1.3571    5.9583 C.2       1 <0>         0.3008
     17 N5         -0.5831    1.8753    7.1475 N.2       1 <0>        -0.4748
     18 C13        -0.4168    0.9057    8.0845 C.ar      1 <0>         0.0489
     19 C14        -0.2133   -0.3017    7.3952 C.ar      1 <0>         0.0592
     20 C15        -0.0179   -1.4786    8.1024 C.ar      1 <0>        -0.0906
     21 C16        -0.0271   -1.4600    9.4814 C.ar      1 <0>        -0.1058
     22 C17        -0.2311   -0.2713   10.1669 C.ar      1 <0>        -0.1189
     23 C18        -0.4183    0.9077    9.4815 C.ar      1 <0>        -0.0658
     24 O1          0.4771   -4.3366    4.5208 O.3       1 <0>        -0.2716
     25 C19         0.5352   -4.7141    5.8979 C.3       1 <0>         0.0737
     26 C20         0.7875   -6.2194    6.0039 C.3       1 <0>         0.0519
     27 N6          2.0967   -6.5389    5.4193 N.3       1 <0>        -0.5324
     28 C21         2.1836   -7.9640    5.0687 C.3       1 <0>         0.0185
     29 C22         3.5377   -8.2403    4.4100 C.3       1 <0>         0.0630
     30 O2          4.5847   -7.8360    5.2963 O.3       1 <0>        -0.3844
     31 C23         4.5310   -6.4534    5.6580 C.3       1 <0>         0.0640
     32 C24         3.1869   -6.1589    6.3294 C.3       1 <0>         0.0139
     33 O3         -2.3898    3.2410    2.8139 O.3       1 <0>        -0.4952
     34 H1          0.1105    0.0232   -1.7091 H         1 <0>         0.0723
     35 H2          1.4019    1.2306   -1.5026 H         1 <0>         0.0744
     36 H3          1.3755   -0.2276   -0.4822 H         1 <0>         0.0622
     37 H4         -0.1422    3.0588   -1.0951 H         1 <0>         0.1315
     38 H5         -1.5166    4.2502    0.5611 H         1 <0>         0.1301
     39 H6         -1.5724    0.7635    3.0305 H         1 <0>         0.1509
     40 H7          0.0881   -1.3148    0.6609 H         1 <0>         0.4271
     41 H8          0.3071   -3.2695    2.1125 H         1 <0>         0.1582
     42 H9         -0.5864    1.9081    5.0342 H         1 <0>         0.2249
     43 H10         0.1407   -2.4074    7.5746 H         1 <0>         0.1361
     44 H11         0.1251   -2.3770   10.0313 H         1 <0>         0.1320
     45 H12        -0.2364   -0.2698   11.2469 H         1 <0>         0.1332
     46 H13        -0.5779    1.8291   10.0218 H         1 <0>         0.1344
     47 H14         1.3453   -4.1745    6.3886 H         1 <0>         0.0717
     48 H15        -0.4101   -4.4691    6.3820 H         1 <0>         0.0767
     49 H16         0.7754   -6.5169    7.0525 H         1 <0>         0.0667
     50 H17         0.0078   -6.7573    5.4646 H         1 <0>         0.0891
     51 H18         2.0881   -8.5673    5.9715 H         1 <0>         0.0448
     52 H19         1.3825   -8.2174    4.3744 H         1 <0>         0.0887
     53 H20         3.6296   -9.3059    4.2002 H         1 <0>         0.0997
     54 H21         3.6112   -7.6778    3.4792 H         1 <0>         0.0609
     55 H22         5.3413   -6.2266    6.3509 H         1 <0>         0.0993
     56 H23         4.6334   -5.8389    4.7636 H         1 <0>         0.0600
     57 H24         3.1183   -5.0948    6.5553 H         1 <0>         0.0850
     58 H25         3.1075   -6.7334    7.2523 H         1 <0>         0.0463
     59 H26        -3.3422    3.1547    2.6703 H         1 <0>         0.3918
@<TRIPOS>BOND
     1    1    2 1
     2    1   34 1
     3    1   35 1
     4    1   36 1
     5    2    7 ar
     6    2    3 ar
     7    3    4 ar
     8    3   37 1
     9    4    5 ar
    10    4   38 1
    11    5    6 ar
    12    5   33 1
    13    6    7 ar
    14    6   39 1
    15    7    8 1
    16    8    9 1
    17    8   40 1
    18    9   14 ar
    19    9   10 ar
    20   10   11 ar
    21   10   41 1
    22   11   12 ar
    23   11   24 1
    24   12   13 ar
    25   13   14 ar
    26   13   15 1
    27   15   19 1
    28   15   16 1
    29   16   17 2
    30   16   42 1
    31   17   18 1
    32   18   23 ar
    33   18   19 ar
    34   19   20 ar
    35   20   21 ar
    36   20   43 1
    37   21   22 ar
    38   21   44 1
    39   22   23 ar
    40   22   45 1
    41   23   46 1
    42   24   25 1
    43   25   26 1
    44   25   47 1
    45   25   48 1
    46   26   27 1
    47   26   49 1
    48   26   50 1
    49   27   32 1
    50   27   28 1
    51   28   29 1
    52   28   51 1
    53   28   52 1
    54   29   30 1
    55   29   53 1
    56   29   54 1
    57   30   31 1
    58   31   32 1
    59   31   55 1
    60   31   56 1
    61   32   57 1
    62   32   58 1
    63   33   59 1
@<TRIPOS>MOLECULE
CHEMBL220645__1
   60    64     0     0     0
SMALL
USER_CHARGES

@<TRIPOS>ATOM
      1 C1          1.1265    1.0219   -0.4418 C.3       1 <0>        -0.1170
      2 C2          0.2711    1.6936    0.6013 C.ar      1 <0>        -0.1200
      3 C3         -0.0541    3.0301    0.4715 C.ar      1 <0>        -0.0791
      4 C4         -0.8382    3.6491    1.4261 C.ar      1 <0>        -0.1503
      5 C5         -1.3019    2.9297    2.5190 C.ar      1 <0>         0.1232
      6 C6         -0.9781    1.5890    2.6530 C.ar      1 <0>        -0.1495
      7 C7         -0.1949    0.9672    1.6900 C.ar      1 <0>         0.1584
      8 N1          0.1292   -0.3864    1.8186 N.pl3     1 <0>        -0.6288
      9 C8          0.1724   -0.9729    3.0748 C.ar      1 <0>         0.4921
     10 C9          0.3515   -2.3481    3.2064 C.ar      1 <0>        -0.3141
     11 C10         0.3882   -2.8905    4.4848 C.ar      1 <0>         0.4166
     12 N2          0.2521   -2.0852    5.5340 N.ar      1 <0>        -0.6201
     13 C11         0.0835   -0.7828    5.3725 C.ar      1 <0>         0.6339
     14 N3          0.0488   -0.2290    4.1712 N.ar      1 <0>        -0.5831
     15 N4         -0.0557    0.0272    6.4964 N.pl3     1 <0>        -0.4325
     16 C12        -0.2416    1.3791    6.5024 C.2       1 <0>         0.3028
     17 N5         -0.3318    1.8114    7.7254 N.2       1 <0>        -0.4663
     18 C13        -0.2107    0.7706    8.5902 C.ar      1 <0>         0.0519
     19 C14        -0.0374   -0.3891    7.8162 C.ar      1 <0>         0.0553
     20 C15         0.1092   -1.6207    8.4369 C.ar      1 <0>        -0.0969
     21 C16         0.0814   -1.7029    9.8133 C.ar      1 <0>        -0.1033
     22 C17        -0.0929   -0.5615   10.5822 C.ar      1 <0>        -0.1171
     23 C18        -0.2316    0.6703    9.9834 C.ar      1 <0>        -0.0583
     24 O1          0.5600   -4.2236    4.6602 O.3       1 <0>        -0.3081
     25 C19         0.5864   -4.7027    6.0063 C.3       1 <0>         0.0321
     26 C20         0.7875   -6.2194    6.0039 C.3       1 <0>        -0.0019
     27 N6          2.0967   -6.5389    5.4193 N.4       1 <0>        -0.3880
     28 C21         2.2263   -7.9953    5.2743 C.3       1 <0>        -0.0438
     29 C22         3.5911   -8.3256    4.6649 C.3       1 <0>         0.0354
     30 O2          4.6220   -7.7867    5.4971 O.3       1 <0>        -0.3550
     31 C23         4.5246   -6.3726    5.6883 C.3       1 <0>         0.0376
     32 C24         3.1616   -6.0387    6.2996 C.3       1 <0>        -0.0507
     33 O3         -2.0726    3.5400    3.4573 O.3       1 <0>        -0.4946
     34 H1          0.4889    0.6076   -1.2228 H         1 <0>         0.0744
     35 H2          1.8078    1.7522   -0.8783 H         1 <0>         0.0774
     36 H3          1.7015    0.2200    0.0212 H         1 <0>         0.0601
     37 H4          0.3057    3.5923   -0.3776 H         1 <0>         0.1353
     38 H5         -1.0903    4.6940    1.3220 H         1 <0>         0.1343
     39 H6         -1.3380    1.0278    3.5026 H         1 <0>         0.1465
     40 H7          0.3239   -0.9156    1.0293 H         1 <0>         0.4287
     41 H8          0.4589   -2.9775    2.3354 H         1 <0>         0.1600
     42 H9         -0.3045    1.9991    5.6204 H         1 <0>         0.2273
     43 H10         0.2446   -2.5131    7.8439 H         1 <0>         0.1293
     44 H11         0.1957   -2.6624   10.2958 H         1 <0>         0.1322
     45 H12        -0.1133   -0.6390   11.6592 H         1 <0>         0.1368
     46 H13        -0.3684    1.5545   10.5884 H         1 <0>         0.1388
     47 H14         1.4068   -4.2282    6.5448 H         1 <0>         0.0957
     48 H15        -0.3571   -4.4620    6.4962 H         1 <0>         0.1200
     49 H16         0.7454   -6.5931    7.0270 H         1 <0>         0.1549
     50 H17         0.0013   -6.6892    5.4129 H         1 <0>         0.1461
     51 H18         2.1415   -8.4672    6.2532 H         1 <0>         0.1414
     52 H19         1.4369   -8.3674    4.6213 H         1 <0>         0.1445
     53 H20         3.7069   -9.4072    4.5962 H         1 <0>         0.1438
     54 H21         3.6608   -7.8874    3.6692 H         1 <0>         0.0815
     55 H22         5.3161   -6.0407    6.3602 H         1 <0>         0.1432
     56 H23         4.6263   -5.8675    4.7277 H         1 <0>         0.0809
     57 H24         3.0664   -4.9582    6.4078 H         1 <0>         0.1395
     58 H25         3.0764   -6.5112    7.2781 H         1 <0>         0.1433
     59 H26        -3.0215    3.4964    3.2759 H         1 <0>         0.3946
     60 H27         2.1763   -6.1020    4.5133 H         1 <0>         0.4284
@<TRIPOS>BOND
     1    1    2 1
     2    1   34 1
     3    1   35 1
     4    1   36 1
     5    2    7 ar
     6    2    3 ar
     7    3    4 ar
     8    3   37 1
     9    4    5 ar
    10    4   38 1
    11    5    6 ar
    12    5   33 1
    13    6    7 ar
    14    6   39 1
    15    7    8 1
    16    8    9 1
    17    8   40 1
    18    9   14 ar
    19    9   10 ar
    20   10   11 ar
    21   10   41 1
    22   11   12 ar
    23   11   24 1
    24   12   13 ar
    25   13   14 ar
    26   13   15 1
    27   15   19 1
    28   15   16 1
    29   16   17 2
    30   16   42 1
    31   17   18 1
    32   18   23 ar
    33   18   19 ar
    34   19   20 ar
    35   20   21 ar
    36   20   43 1
    37   21   22 ar
    38   21   44 1
    39   22   23 ar
    40   22   45 1
    41   23   46 1
    42   24   25 1
    43   25   26 1
    44   25   47 1
    45   25   48 1
    46   26   27 1
    47   26   49 1
    48   26   50 1
    49   27   32 1
    50   27   28 1
    51   27   60 1
    52   28   29 1
    53   28   51 1
    54   28   52 1
    55   29   30 1
    56   29   53 1
    57   29   54 1
    58   30   31 1
    59   31   32 1
    60   31   55 1
    61   31   56 1
    62   32   57 1
    63   32   58 1
    64   33   59 1
@<TRIPOS>MOLECULE
CHEMBL187802
   54    57     0     0     0
SMALL
USER_CHARGES

@<TRIPOS>ATOM
      1 C1          2.5304   -1.2022    1.7792 C.3       1 <0>        -0.1144
      2 C2          1.3346   -1.3283    0.8708 C.ar      1 <0>        -0.0536
      3 C3          1.4342   -2.0413   -0.3083 C.ar      1 <0>        -0.1104
      4 C4          0.3380   -2.1578   -1.1427 C.ar      1 <0>        -0.0894
      5 C5         -0.8623   -1.5619   -0.8003 C.ar      1 <0>        -0.1126
      6 C6         -0.9692   -0.8474    0.3774 C.ar      1 <0>        -0.0173
      7 C7          0.1302   -0.7329    1.2209 C.ar      1 <0>         0.1399
      8 N1          0.0246   -0.0151    2.4163 N.pl3     1 <0>        -0.6335
      9 C8         -0.3646   -0.6569    3.5747 C.2       1 <0>         0.5353
     10 C9         -0.4740    0.0921    4.8243 C.2       1 <0>        -0.0980
     11 C10        -0.2682    1.4033    5.1780 C.2       1 <0>         0.0645
     12 N2         -0.5273    1.5120    6.4828 N.2       1 <0>        -0.4662
     13 C11        -0.8826    0.3459    6.9635 C.2       1 <0>         0.2096
     14 N3         -0.8652   -0.5652    5.9771 N.pl3     1 <0>        -0.3562
     15 C12        -1.1428   -1.9261    5.9073 C.ar      1 <0>        -0.0520
     16 C13        -1.5386   -2.6332    7.0287 C.ar      1 <0>         0.1785
     17 N4         -1.8002   -3.9250    6.9517 N.ar      1 <0>        -0.5427
     18 C14        -1.6986   -4.5994    5.8140 C.ar      1 <0>         0.3982
     19 C15        -1.3090   -3.9707    4.6429 C.ar      1 <0>        -0.2110
     20 C16        -1.0211   -2.6004    4.6770 C.ar      1 <0>         0.2437
     21 N5         -0.6432   -1.9448    3.5536 N.2       1 <0>        -0.5654
     22 N6         -1.9878   -5.9611    5.7967 N.pl3     1 <0>        -0.6074
     23 C17        -1.7746   -6.7398    4.5743 C.3       1 <0>         0.0871
     24 C18        -2.5053   -6.6153    7.0011 C.3       1 <0>         0.1095
     25 C19        -4.0339   -6.5513    6.9994 C.3       1 <0>        -0.0326
     26 N7         -4.5528   -7.2073    8.2070 N.4       1 <0>        -0.3834
     27 C20        -6.0113   -7.0418    8.2659 C.3       1 <0>        -0.0459
     28 C21        -4.2237   -8.6384    8.1667 C.3       1 <0>        -0.0529
     29 Cl1        -2.4757   -0.0991    0.8065 Cl        1 <0>        -0.0580
     30 H1          2.5370   -2.0300    2.4883 H         1 <0>         0.0736
     31 H2          3.4432   -1.2265    1.1838 H         1 <0>         0.0760
     32 H3          2.4761   -0.2588    2.3225 H         1 <0>         0.0672
     33 H4          2.3699   -2.5079   -0.5789 H         1 <0>         0.1359
     34 H5          0.4192   -2.7153   -2.0642 H         1 <0>         0.1383
     35 H6         -1.7167   -1.6549   -1.4544 H         1 <0>         0.1388
     36 H7          0.2249    0.9339    2.4314 H         1 <0>         0.4271
     37 H8          0.0461    2.2004    4.5206 H         1 <0>         0.1889
     38 H9         -1.1470    0.1483    7.9918 H         1 <0>         0.2192
     39 H10        -1.6341   -2.1238    7.9762 H         1 <0>         0.1664
     40 H11        -1.2283   -4.5269    3.7207 H         1 <0>         0.1510
     41 H12        -0.7611   -7.1407    4.5710 H         1 <0>         0.0651
     42 H13        -2.4903   -7.5611    4.5372 H         1 <0>         0.0743
     43 H14        -1.9139   -6.0970    3.7051 H         1 <0>         0.0830
     44 H15        -2.1852   -7.6572    7.0146 H         1 <0>         0.0945
     45 H16        -2.1213   -6.1057    7.8848 H         1 <0>         0.1080
     46 H17        -4.3540   -5.5095    6.9859 H         1 <0>         0.1310
     47 H18        -4.4179   -7.0609    6.1156 H         1 <0>         0.1276
     48 H19        -6.4642   -7.4941    7.3837 H         1 <0>         0.1210
     49 H20        -6.3963   -7.5285    9.1620 H         1 <0>         0.1258
     50 H21        -6.2555   -5.9799    8.2958 H         1 <0>         0.1227
     51 H22        -3.1415   -8.7613    8.1230 H         1 <0>         0.1237
     52 H23        -4.6087   -9.1252    9.0628 H         1 <0>         0.1263
     53 H24        -4.6766   -9.0907    7.2844 H         1 <0>         0.1224
     54 H25        -4.1335   -6.7887    9.0237 H         1 <0>         0.4290
@<TRIPOS>BOND
     1    1    2 1
     2    1   30 1
     3    1   31 1
     4    1   32 1
     5    2    7 ar
     6    2    3 ar
     7    3    4 ar
     8    3   33 1
     9    4    5 ar
    10    4   34 1
    11    5    6 ar
    12    5   35 1
    13    6    7 ar
    14    6   29 1
    15    7    8 1
    16    8    9 1
    17    8   36 1
    18    9   21 2
    19    9   10 1
    20   10   14 1
    21   10   11 2
    22   11   12 1
    23   11   37 1
    24   12   13 2
    25   13   14 1
    26   13   38 1
    27   14   15 1
    28   15   20 ar
    29   15   16 ar
    30   16   17 ar
    31   16   39 1
    32   17   18 ar
    33   18   19 ar
    34   18   22 1
    35   19   20 ar
    36   19   40 1
    37   20   21 1
    38   22   23 1
    39   22   24 1
    40   23   41 1
    41   23   42 1
    42   23   43 1
    43   24   25 1
    44   24   44 1
    45   24   45 1
    46   25   26 1
    47   25   46 1
    48   25   47 1
    49   26   27 1
    50   26   28 1
    51   26   54 1
    52   27   48 1
    53   27   49 1
    54   27   50 1
    55   28   51 1
    56   28   52 1
    57   28   53 1
@<TRIPOS>MOLECULE
CHEMBL460702
   54    57     0     0     0
SMALL
USER_CHARGES

@<TRIPOS>ATOM
      1 C1         -1.8331    1.2071    0.6543 C.3       1 <0>        -0.1485
      2 C2         -1.1111   -0.1246    0.4392 C.3       1 <0>        -0.0156
      3 O1         -0.4576   -0.5130    1.6492 O.3       1 <0>        -0.2887
      4 C3          0.1956   -1.6965    1.6413 C.2       1 <0>         0.2812
      5 C4          0.8113   -2.1811    2.8066 C.2       1 <0>        -0.2346
      6 C5          1.4617   -3.3668    2.7852 C.2       1 <0>         0.1825
      7 N1          1.5359   -4.1113    1.6510 N.am      1 <0>        -0.4617
      8 C6          0.9646   -3.6966    0.5049 C.2       1 <0>         0.5563
      9 O2          1.0447   -4.3821   -0.5001 O.2       1 <0>        -0.5186
     10 C7          0.2657   -2.4660    0.4700 C.2       1 <0>        -0.3823
     11 C8         -0.3679   -2.0011   -0.7689 C.2       1 <0>         0.6089
     12 O3         -1.5254   -2.2922   -1.0067 O.2       1 <0>        -0.5042
     13 N2          0.3319   -1.2516   -1.6436 N.am      1 <0>        -0.6629
     14 C9         -0.2980   -0.7320   -2.7810 C.ar      1 <0>         0.1254
     15 C10        -1.6694   -0.5132   -2.7765 C.ar      1 <0>        -0.1041
     16 C11        -2.2911   -0.0007   -3.8982 C.ar      1 <0>        -0.1361
     17 C12        -1.5466    0.2960   -5.0301 C.ar      1 <0>         0.1010
     18 C13        -0.1745    0.0777   -5.0363 C.ar      1 <0>         0.0885
     19 C14         0.4493   -0.4300   -3.9116 C.ar      1 <0>        -0.1492
     20 F1          0.5506    0.3659   -6.1391 F         1 <0>        -0.1297
     21 O4         -2.1598    0.8003   -6.1343 O.3       1 <0>        -0.2433
     22 C15        -3.4777    1.1051   -6.0470 C.2       1 <0>         0.1598
     23 C16        -3.9133    2.1372   -5.1877 C.2       1 <0>        -0.3708
     24 C17        -5.2225    2.4413   -5.0998 C.2       1 <0>         0.1684
     25 N3         -6.1488    1.7620   -5.8360 N.2       1 <0>        -0.6429
     26 C18        -5.7606    0.7513   -6.6835 C.2       1 <0>         0.3964
     27 C19        -4.3941    0.4192   -6.7947 C.2       1 <0>        -0.1480
     28 Cl1        -3.8827   -0.8496   -7.8635 Cl        1 <0>        -0.0873
     29 N4         -6.6611    0.0983   -7.3925 N.2       1 <0>        -0.8285
     30 C20         2.2205   -5.3335    1.6748 C.ar      1 <0>         0.0899
     31 C21         1.7273   -6.3921    2.4259 C.ar      1 <0>        -0.0766
     32 C22         2.4035   -7.5960    2.4480 C.ar      1 <0>        -0.1428
     33 C23         3.5729   -7.7479    1.7218 C.ar      1 <0>         0.1145
     34 C24         4.0665   -6.6933    0.9720 C.ar      1 <0>        -0.1418
     35 C25         3.3901   -5.4896    0.9427 C.ar      1 <0>        -0.0573
     36 F2          4.2332   -8.9263    1.7450 F         1 <0>        -0.1327
     37 H1         -1.1092    1.9712    0.9377 H         1 <0>         0.0661
     38 H2         -2.3316    1.5033   -0.2686 H         1 <0>         0.0888
     39 H3         -2.5727    1.0954    1.4471 H         1 <0>         0.0681
     40 H4         -1.8349   -0.8887    0.1558 H         1 <0>         0.1077
     41 H5         -0.3714   -0.0130   -0.3535 H         1 <0>         0.0946
     42 H6          0.7659   -1.6066    3.7200 H         1 <0>         0.1675
     43 H7          1.9317   -3.7290    3.6876 H         1 <0>         0.1784
     44 H8          1.2719   -1.0722   -1.4851 H         1 <0>         0.4114
     45 H9         -2.2500   -0.7443   -1.8957 H         1 <0>         0.1504
     46 H10        -3.3577    0.1689   -3.8941 H         1 <0>         0.1523
     47 H11         1.5164   -0.5961   -3.9143 H         1 <0>         0.1421
     48 H12        -3.1935    2.6851   -4.5978 H         1 <0>         0.1046
     49 H13        -5.5430    3.2325   -4.4382 H         1 <0>         0.1242
     50 H14        -7.5998    0.3308   -7.3167 H         1 <0>         0.3041
     51 H15         0.8155   -6.2740    2.9926 H         1 <0>         0.1423
     52 H16         2.0204   -8.4195    3.0323 H         1 <0>         0.1468
     53 H17         4.9787   -6.8135    0.4066 H         1 <0>         0.1466
     54 H18         3.7729   -4.6688    0.3544 H         1 <0>         0.1396
@<TRIPOS>BOND
     1    1    2 1
     2    1   37 1
     3    1   38 1
     4    1   39 1
     5    2    3 1
     6    2   40 1
     7    2   41 1
     8    3    4 1
     9    4   10 2
    10    4    5 1
    11    5    6 2
    12    5   42 1
    13    6    7 1
    14    6   43 1
    15    7    8 am
    16    7   30 1
    17    8    9 2
    18    8   10 1
    19   10   11 1
    20   11   12 2
    21   11   13 am
    22   13   14 1
    23   13   44 1
    24   14   19 ar
    25   14   15 ar
    26   15   16 ar
    27   15   45 1
    28   16   17 ar
    29   16   46 1
    30   17   18 ar
    31   17   21 1
    32   18   19 ar
    33   18   20 1
    34   19   47 1
    35   21   22 1
    36   22   23 1
    37   22   27 2
    38   23   48 1
    39   23   24 2
    40   24   49 1
    41   24   25 1
    42   25   26 1
    43   26   29 2
    44   26   27 1
    45   27   28 1
    46   29   50 1
    47   30   35 ar
    48   30   31 ar
    49   31   32 ar
    50   31   51 1
    51   32   33 ar
    52   32   52 1
    53   33   34 ar
    54   33   36 1
    55   34   35 ar
    56   34   53 1
    57   35   54 1
@<TRIPOS>MOLECULE
CHEMBL460702__1
   56    59     0     0     0
SMALL
USER_CHARGES

@<TRIPOS>ATOM
      1 C1          2.4112   -0.8470   -2.5303 C.3       1 <0>        -0.1517
      2 C2          1.4328   -1.4487   -1.5195 C.3       1 <0>        -0.0118
      3 O1          2.1544   -1.9140   -0.3772 O.3       1 <0>        -0.2839
      4 C3          1.4289   -2.4436    0.6330 C.2       1 <0>         0.2944
      5 C4          2.0545   -2.8688    1.8160 C.2       1 <0>        -0.2411
      6 C5          1.3170   -3.3970    2.8193 C.2       1 <0>         0.1977
      7 N1         -0.0310   -3.5284    2.7114 N.am      1 <0>        -0.4567
      8 C6         -0.6841   -3.1375    1.6011 C.2       1 <0>         0.5606
      9 O2         -1.8943   -3.2651    1.5278 O.2       1 <0>        -0.5251
     10 C7          0.0361   -2.5731    0.5209 C.2       1 <0>        -0.4030
     11 C8         -0.6597   -2.1368   -0.6947 C.2       1 <0>         0.6250
     12 O3         -1.0572   -0.9905   -0.7902 O.2       1 <0>        -0.4995
     13 N2         -0.8588   -3.0055   -1.7058 N.am      1 <0>        -0.6705
     14 C9         -1.4394   -2.5664   -2.9020 C.ar      1 <0>         0.2145
     15 C10        -1.3315   -1.2340   -3.2782 C.ar      1 <0>        -0.1370
     16 C11        -1.9040   -0.8005   -4.4580 C.ar      1 <0>        -0.0488
     17 C12        -2.5874   -1.6952   -5.2678 C.ar      1 <0>        -0.0245
     18 C13        -2.6962   -3.0285   -4.8930 C.ar      1 <0>         0.1395
     19 C14        -2.1180   -3.4644   -3.7151 C.ar      1 <0>        -0.1755
     20 F1         -3.3620   -3.9001   -5.6819 F         1 <0>        -0.1179
     21 O4         -3.1515   -1.2671   -6.4289 O.3       1 <0>        -0.1914
     22 C15        -4.4655   -0.9265   -6.4115 C.ar      1 <0>         0.2785
     23 C16        -5.1833   -0.9098   -5.2159 C.ar      1 <0>        -0.2353
     24 C17        -6.5161   -0.5587   -5.2350 C.ar      1 <0>         0.1957
     25 N3         -7.1178   -0.2396   -6.3662 N.ar      1 <0>        -0.5124
     26 C18        -6.4736   -0.2429   -7.5242 C.ar      1 <0>         0.4864
     27 C19        -5.1272   -0.5803   -7.5845 C.ar      1 <0>        -0.1770
     28 Cl1        -4.2850   -0.5757   -9.1025 Cl        1 <0>         0.0302
     29 N4         -7.1507    0.0998   -8.6899 N.pl3     1 <0>        -0.8079
     30 C20        -0.7551   -4.0816    3.7758 C.ar      1 <0>         0.0802
     31 C21        -1.3852   -5.3095    3.6240 C.ar      1 <0>        -0.0570
     32 C22        -2.0984   -5.8531    4.6743 C.ar      1 <0>        -0.1420
     33 C23        -2.1857   -5.1741    5.8781 C.ar      1 <0>         0.1212
     34 C24        -1.5579   -3.9492    6.0315 C.ar      1 <0>        -0.1412
     35 C25        -0.8386   -3.4052    4.9856 C.ar      1 <0>        -0.0747
     36 F2         -2.8846   -5.7070    6.9041 F         1 <0>        -0.1286
     37 H1          3.1285   -1.6075   -2.8387 H         1 <0>         0.0711
     38 H2          1.8608   -0.4920   -3.4017 H         1 <0>         0.0837
     39 H3          2.9411   -0.0127   -2.0707 H         1 <0>         0.0739
     40 H4          0.7155   -0.6881   -1.2111 H         1 <0>         0.1042
     41 H5          0.9029   -2.2829   -1.9791 H         1 <0>         0.0848
     42 H6          3.1248   -2.7744    1.9247 H         1 <0>         0.1722
     43 H7          1.8095   -3.7212    3.7242 H         1 <0>         0.1840
     44 H8         -0.6000   -3.9349   -1.6048 H         1 <0>         0.4233
     45 H9         -0.8001   -0.5364   -2.6478 H         1 <0>         0.1684
     46 H10        -1.8197    0.2359   -4.7499 H         1 <0>         0.1566
     47 H11        -2.1984   -4.5016   -3.4252 H         1 <0>         0.1586
     48 H12        -4.7003   -1.1695   -4.2855 H         1 <0>         0.1893
     49 H13        -7.0762   -0.5446   -4.3118 H         1 <0>         0.2206
     50 H14        -8.0898    0.3397   -8.6527 H         1 <0>         0.4284
     51 H15        -1.3180   -5.8390    2.6851 H         1 <0>         0.1382
     52 H16        -2.5887   -6.8082    4.5566 H         1 <0>         0.1483
     53 H17        -1.6272   -3.4212    6.9710 H         1 <0>         0.1498
     54 H18        -0.3451   -2.4523    5.1071 H         1 <0>         0.1429
     55 H19        -8.0567    0.0034   -6.3492 H         1 <0>         0.4508
     56 H20        -6.6837    0.0989   -9.5401 H         1 <0>         0.4414
@<TRIPOS>BOND
     1    1    2 1
     2    1   37 1
     3    1   38 1
     4    1   39 1
     5    2    3 1
     6    2   40 1
     7    2   41 1
     8    3    4 1
     9    4   10 2
    10    4    5 1
    11    5    6 2
    12    5   42 1
    13    6    7 1
    14    6   43 1
    15    7    8 am
    16    7   30 1
    17    8    9 2
    18    8   10 1
    19   10   11 1
    20   11   12 2
    21   11   13 am
    22   13   14 1
    23   13   44 1
    24   14   19 ar
    25   14   15 ar
    26   15   16 ar
    27   15   45 1
    28   16   17 ar
    29   16   46 1
    30   17   18 ar
    31   17   21 1
    32   18   19 ar
    33   18   20 1
    34   19   47 1
    35   21   22 1
    36   22   23 ar
    37   22   27 ar
    38   23   48 1
    39   23   24 ar
    40   24   49 1
    41   24   25 ar
    42   25   55 1
    43   25   26 ar
    44   26   29 1
    45   26   27 ar
    46   27   28 1
    47   29   50 1
    48   29   56 1
    49   30   35 ar
    50   30   31 ar
    51   31   32 ar
    52   31   51 1
    53   32   33 ar
    54   32   52 1
    55   33   34 ar
    56   33   36 1
    57   34   35 ar
    58   34   53 1
    59   35   54 1
@<TRIPOS>MOLECULE
CHEMBL460702__2
   54    57     0     0     0
SMALL
USER_CHARGES

@<TRIPOS>ATOM
      1 C1         -1.8331    1.2071    0.6543 C.3       1 <0>        -0.1485
      2 C2         -1.1111   -0.1246    0.4392 C.3       1 <0>        -0.0156
      3 O1         -0.4576   -0.5130    1.6492 O.3       1 <0>        -0.2885
      4 C3          0.1956   -1.6965    1.6413 C.2       1 <0>         0.2815
      5 C4          0.8113   -2.1811    2.8066 C.2       1 <0>        -0.2346
      6 C5          1.4617   -3.3668    2.7852 C.2       1 <0>         0.1826
      7 N1          1.5359   -4.1113    1.6510 N.am      1 <0>        -0.4617
      8 C6          0.9646   -3.6966    0.5049 C.2       1 <0>         0.5564
      9 O2          1.0447   -4.3821   -0.5001 O.2       1 <0>        -0.5190
     10 C7          0.2657   -2.4660    0.4700 C.2       1 <0>        -0.3827
     11 C8         -0.3679   -2.0011   -0.7689 C.2       1 <0>         0.6091
     12 O3         -1.5254   -2.2922   -1.0067 O.2       1 <0>        -0.5042
     13 N2          0.3319   -1.2516   -1.6436 N.am      1 <0>        -0.6630
     14 C9         -0.2980   -0.7320   -2.7810 C.ar      1 <0>         0.1261
     15 C10        -1.6694   -0.5132   -2.7765 C.ar      1 <0>        -0.1038
     16 C11        -2.2911   -0.0007   -3.8982 C.ar      1 <0>        -0.1365
     17 C12        -1.5466    0.2960   -5.0301 C.ar      1 <0>         0.1005
     18 C13        -0.1745    0.0777   -5.0363 C.ar      1 <0>         0.0880
     19 C14         0.4493   -0.4300   -3.9116 C.ar      1 <0>        -0.1492
     20 F1          0.5506    0.3659   -6.1391 F         1 <0>        -0.1300
     21 O4         -2.1598    0.8003   -6.1343 O.3       1 <0>        -0.2473
     22 C15        -3.4777    1.1051   -6.0470 C.2       1 <0>         0.1729
     23 C16        -3.9133    2.1372   -5.1877 C.2       1 <0>        -0.3740
     24 C17        -5.2225    2.4413   -5.0998 C.2       1 <0>         0.1701
     25 N3         -6.1488    1.7620   -5.8360 N.2       1 <0>        -0.5775
     26 C18        -5.7606    0.7513   -6.6835 C.2       1 <0>         0.4144
     27 C19        -4.3941    0.4192   -6.7947 C.2       1 <0>        -0.2304
     28 Cl1        -3.8827   -0.8496   -7.8635 Cl        1 <0>        -0.1024
     29 N4         -6.6611    0.0983   -7.3925 N.2       1 <0>        -0.8388
     30 C20         2.2205   -5.3335    1.6748 C.ar      1 <0>         0.0899
     31 C21         1.7273   -6.3921    2.4259 C.ar      1 <0>        -0.0765
     32 C22         2.4035   -7.5960    2.4480 C.ar      1 <0>        -0.1427
     33 C23         3.5729   -7.7479    1.7218 C.ar      1 <0>         0.1145
     34 C24         4.0665   -6.6933    0.9720 C.ar      1 <0>        -0.1419
     35 C25         3.3901   -5.4896    0.9427 C.ar      1 <0>        -0.0574
     36 F2          4.2332   -8.9263    1.7450 F         1 <0>        -0.1327
     37 H1         -1.1092    1.9712    0.9377 H         1 <0>         0.0661
     38 H2         -2.3316    1.5033   -0.2686 H         1 <0>         0.0890
     39 H3         -2.5727    1.0954    1.4471 H         1 <0>         0.0684
     40 H4         -1.8349   -0.8887    0.1558 H         1 <0>         0.1076
     41 H5         -0.3714   -0.0130   -0.3535 H         1 <0>         0.0943
     42 H6          0.7659   -1.6066    3.7200 H         1 <0>         0.1676
     43 H7          1.9317   -3.7290    3.6876 H         1 <0>         0.1786
     44 H8          1.2719   -1.0722   -1.4851 H         1 <0>         0.4115
     45 H9         -2.2500   -0.7443   -1.8957 H         1 <0>         0.1509
     46 H10        -3.3577    0.1689   -3.8941 H         1 <0>         0.1526
     47 H11         1.5164   -0.5961   -3.9143 H         1 <0>         0.1421
     48 H12        -3.1935    2.6851   -4.5978 H         1 <0>         0.1056
     49 H13        -5.5430    3.2325   -4.4382 H         1 <0>         0.1327
     50 H14        -6.3847   -0.6143   -7.9897 H         1 <0>         0.3107
     51 H15         0.8155   -6.2740    2.9926 H         1 <0>         0.1423
     52 H16         2.0204   -8.4195    3.0323 H         1 <0>         0.1469
     53 H17         4.9787   -6.8135    0.4066 H         1 <0>         0.1465
     54 H18         3.7729   -4.6688    0.3544 H         1 <0>         0.1395
@<TRIPOS>BOND
     1    1    2 1
     2    1   37 1
     3    1   38 1
     4    1   39 1
     5    2    3 1
     6    2   40 1
     7    2   41 1
     8    3    4 1
     9    4   10 2
    10    4    5 1
    11    5    6 2
    12    5   42 1
    13    6    7 1
    14    6   43 1
    15    7    8 am
    16    7   30 1
    17    8    9 2
    18    8   10 1
    19   10   11 1
    20   11   12 2
    21   11   13 am
    22   13   14 1
    23   13   44 1
    24   14   19 ar
    25   14   15 ar
    26   15   16 ar
    27   15   45 1
    28   16   17 ar
    29   16   46 1
    30   17   18 ar
    31   17   21 1
    32   18   19 ar
    33   18   20 1
    34   19   47 1
    35   21   22 1
    36   22   23 1
    37   22   27 2
    38   23   48 1
    39   23   24 2
    40   24   49 1
    41   24   25 1
    42   25   26 1
    43   26   29 2
    44   26   27 1
    45   27   28 1
    46   29   50 1
    47   30   35 ar
    48   30   31 ar
    49   31   32 ar
    50   31   51 1
    51   32   33 ar
    52   32   52 1
    53   33   34 ar
    54   33   36 1
    55   34   35 ar
    56   34   53 1
    57   35   54 1
@<TRIPOS>MOLECULE
CHEMBL379517
   66    70     0     0     0
SMALL
USER_CHARGES

@<TRIPOS>ATOM
      1 C1         -5.9696   -2.5890    0.2299 C.3       1 <0>        -0.1869
      2 C2         -5.0460   -1.4753    0.7275 C.3       1 <0>        -0.0178
      3 N1         -3.6712   -1.7456    0.2863 N.4       1 <0>        -0.3872
      4 C3         -3.6023   -1.6649   -1.1789 C.3       1 <0>        -0.0149
      5 C4         -2.2085   -2.0871   -1.6480 C.3       1 <0>        -0.1885
      6 C5         -2.7637   -0.7515    0.8746 C.3       1 <0>        -0.0054
      7 C6         -2.7410   -0.9187    2.3953 C.3       1 <0>         0.0265
      8 O1         -2.1763   -2.1889    2.7266 O.3       1 <0>        -0.3285
      9 C7         -2.0825   -2.4972    4.0477 C.ar      1 <0>         0.0913
     10 C8         -2.5307   -1.5970    5.0031 C.ar      1 <0>        -0.1799
     11 C9         -2.4359   -1.9093    6.3449 C.ar      1 <0>        -0.0719
     12 C10        -1.8921   -3.1253    6.7376 C.ar      1 <0>         0.1525
     13 C11        -1.4441   -4.0261    5.7805 C.ar      1 <0>        -0.1087
     14 C12        -1.5440   -3.7142    4.4389 C.ar      1 <0>        -0.1179
     15 N2         -1.7951   -3.4426    8.0979 N.pl3     1 <0>        -0.6351
     16 C13        -2.7605   -2.9943    8.9840 C.ar      1 <0>         0.6000
     17 N3         -3.8239   -2.3644    8.5054 N.ar      1 <0>        -0.5873
     18 C14        -4.7762   -1.9164    9.3118 C.ar      1 <0>         0.2275
     19 C15        -4.6362   -2.1222   10.6815 C.ar      1 <0>        -0.2486
     20 C16        -3.4930   -2.7957   11.1549 C.ar      1 <0>         0.5143
     21 N4         -2.5902   -3.2158   10.2814 N.ar      1 <0>        -0.6015
     22 N5         -3.3371   -3.0087   12.5137 N.pl3     1 <0>        -0.4116
     23 C17        -2.2467   -3.6766   13.2431 C.3       1 <0>         0.1361
     24 C18        -2.6590   -3.5878   14.7217 C.3       1 <0>        -0.1620
     25 C19        -3.9794   -2.8592   14.6971 C.2       1 <0>         0.5277
     26 O2         -4.6466   -2.5831   15.6718 O.2       1 <0>        -0.4739
     27 N6         -4.3026   -2.5622   13.4192 N.am      1 <0>        -0.3596
     28 C20        -5.4475   -1.8901   12.9593 C.2       1 <0>         0.1538
     29 C21        -5.6427   -1.6587   11.6450 C.2       1 <0>        -0.1038
     30 C22        -6.4557   -1.4272   13.9337 C.ar      1 <0>        -0.0413
     31 C23        -7.2486   -2.3529   14.6173 C.ar      1 <0>         0.0181
     32 C24        -8.1893   -1.9124   15.5269 C.ar      1 <0>        -0.1058
     33 C25        -8.3483   -0.5583   15.7620 C.ar      1 <0>        -0.0754
     34 C26        -7.5670    0.3642   15.0890 C.ar      1 <0>        -0.1084
     35 C27        -6.6179   -0.0613   14.1811 C.ar      1 <0>         0.0000
     36 Cl1        -5.6334    1.0977   13.3438 Cl        1 <0>        -0.0474
     37 Cl2        -7.0517   -4.0525   14.3231 Cl        1 <0>        -0.0486
     38 H1         -6.9680   -2.4446    0.6428 H         1 <0>         0.1063
     39 H2         -6.0190   -2.5609   -0.8586 H         1 <0>         0.0812
     40 H3         -5.5798   -3.5549    0.5511 H         1 <0>         0.0804
     41 H4         -5.3770   -0.5199    0.3205 H         1 <0>         0.1308
     42 H5         -5.0772   -1.4368    1.8164 H         1 <0>         0.1291
     43 H6         -4.3489   -2.3287   -1.6148 H         1 <0>         0.1327
     44 H7         -3.7975   -0.6405   -1.4959 H         1 <0>         0.1297
     45 H8         -2.1881   -2.1264   -2.7371 H         1 <0>         0.1061
     46 H9         -1.4724   -1.3641   -1.2966 H         1 <0>         0.0804
     47 H10        -1.9721   -3.0717   -1.2445 H         1 <0>         0.0810
     48 H11        -1.7589   -0.8972    0.4781 H         1 <0>         0.1433
     49 H12        -3.1113    0.2508    0.6244 H         1 <0>         0.1482
     50 H13        -2.1382   -0.1262    2.8390 H         1 <0>         0.1080
     51 H14        -3.7583   -0.8613    2.7824 H         1 <0>         0.0856
     52 H15        -2.9536   -0.6514    4.6975 H         1 <0>         0.1285
     53 H16        -2.7842   -1.2080    7.0887 H         1 <0>         0.1444
     54 H17        -1.0210   -4.9720    6.0851 H         1 <0>         0.1378
     55 H18        -1.1994   -4.4165    3.6943 H         1 <0>         0.1358
     56 H19        -1.0518   -3.9763    8.4197 H         1 <0>         0.4265
     57 H20        -5.6400   -1.4035    8.9154 H         1 <0>         0.1786
     58 H21        -2.1643   -4.7184   12.9333 H         1 <0>         0.0982
     59 H22        -1.3040   -3.1545   13.0793 H         1 <0>         0.0986
     60 H23        -2.7819   -4.5852   15.1437 H         1 <0>         0.1280
     61 H24        -1.9214   -3.0209   15.2896 H         1 <0>         0.1283
     62 H25        -6.5273   -1.1402   11.3058 H         1 <0>         0.1533
     63 H26        -8.8028   -2.6267   16.0559 H         1 <0>         0.1454
     64 H27        -9.0863   -0.2196   16.4741 H         1 <0>         0.1481
     65 H28        -7.6971    1.4197   15.2775 H         1 <0>         0.1464
     66 H29        -3.3975   -2.6696    0.5854 H         1 <0>         0.4294
@<TRIPOS>BOND
     1    1    2 1
     2    1   38 1
     3    1   39 1
     4    1   40 1
     5    2    3 1
     6    2   41 1
     7    2   42 1
     8    3    4 1
     9    3    6 1
    10    3   66 1
    11    4    5 1
    12    4   43 1
    13    4   44 1
    14    5   45 1
    15    5   46 1
    16    5   47 1
    17    6    7 1
    18    6   48 1
    19    6   49 1
    20    7    8 1
    21    7   50 1
    22    7   51 1
    23    8    9 1
    24    9   14 ar
    25    9   10 ar
    26   10   11 ar
    27   10   52 1
    28   11   12 ar
    29   11   53 1
    30   12   13 ar
    31   12   15 1
    32   13   14 ar
    33   13   54 1
    34   14   55 1
    35   15   16 1
    36   15   56 1
    37   16   21 ar
    38   16   17 ar
    39   17   18 ar
    40   18   19 ar
    41   18   57 1
    42   19   29 1
    43   19   20 ar
    44   20   21 ar
    45   20   22 1
    46   22   27 1
    47   22   23 1
    48   23   24 1
    49   23   58 1
    50   23   59 1
    51   24   25 1
    52   24   60 1
    53   24   61 1
    54   25   26 2
    55   25   27 am
    56   27   28 1
    57   28   29 2
    58   28   30 1
    59   29   62 1
    60   30   35 ar
    61   30   31 ar
    62   31   32 ar
    63   31   37 1
    64   32   33 ar
    65   32   63 1
    66   33   34 ar
    67   33   64 1
    68   34   35 ar
    69   34   65 1
    70   35   36 1
@<TRIPOS>MOLECULE
CHEMBL456463
   55    60     0     0     0
SMALL
USER_CHARGES

@<TRIPOS>ATOM
      1 C1         -2.0185   -6.2973   -5.8013 C.3       1 <0>         0.1071
      2 N1         -1.6286   -5.8656   -4.4567 N.pl3     1 <0>        -0.7026
      3 C2         -0.7614   -4.7988   -4.2967 C.ar      1 <0>         0.5676
      4 N2         -0.2981   -4.1765   -5.3713 N.ar      1 <0>        -0.5721
      5 C3          0.5328   -3.1519   -5.2604 C.ar      1 <0>         0.1950
      6 C4          0.9204   -2.7279   -4.0022 C.ar      1 <0>        -0.2864
      7 C5          0.4157   -3.4033   -2.8871 C.ar      1 <0>         0.2685
      8 N3         -0.4203   -4.4230   -3.0744 N.ar      1 <0>        -0.5430
      9 C6          0.8006   -2.9878   -1.5182 C.ar      1 <0>        -0.1301
     10 C7          1.6686   -1.9117   -1.3201 C.ar      1 <0>        -0.0132
     11 C8          1.9975   -1.5619   -0.0212 C.ar      1 <0>        -0.2117
     12 C9          1.4628   -2.2806    1.0320 C.ar      1 <0>         0.1598
     13 N4          0.6447   -3.2936    0.8205 N.ar      1 <0>        -0.5275
     14 C10         0.2956   -3.6636   -0.4000 C.ar      1 <0>         0.3536
     15 O1         -0.5521   -4.7072   -0.5705 O.3       1 <0>        -0.1985
     16 C11        -0.9514   -5.3918    0.5336 C.ar      1 <0>         0.0760
     17 C12        -0.4351   -6.6401    0.7969 C.ar      1 <0>        -0.0767
     18 C13        -0.8332   -7.3543    1.9227 C.ar      1 <0>        -0.1488
     19 C14        -1.7546   -6.8293    2.8025 C.ar      1 <0>         0.1758
     20 C15        -2.3022   -5.5520    2.5602 C.ar      1 <0>        -0.0548
     21 C16        -1.8915   -4.8237    1.4168 C.ar      1 <0>        -0.0213
     22 C17        -2.4339   -3.5497    1.1802 C.ar      1 <0>        -0.0862
     23 C18        -3.3403   -3.0305    2.0531 C.ar      1 <0>        -0.1116
     24 C19        -3.7396   -3.7445    3.1812 C.ar      1 <0>        -0.1067
     25 C20        -3.2436   -4.9868    3.4354 C.ar      1 <0>        -0.1133
     26 N5         -2.1451   -7.5587    3.9288 N.pl3     1 <0>        -0.6045
     27 C21        -1.4800   -8.7175    4.2635 C.2       1 <0>         0.4943
     28 N6         -0.3928   -9.1535    3.6799 N.2       1 <0>        -0.5130
     29 C22        -0.0195  -10.3220    4.2695 C.ar      1 <0>         0.0518
     30 C23         1.0361  -11.2113    4.0632 C.ar      1 <0>        -0.0743
     31 C24         1.1423  -12.3394    4.8468 C.ar      1 <0>        -0.1086
     32 C25         0.2069  -12.5957    5.8376 C.ar      1 <0>        -0.1048
     33 C26        -0.8422  -11.7247    6.0519 C.ar      1 <0>        -0.0818
     34 C27        -0.9635  -10.5850    5.2736 C.ar      1 <0>        -0.0016
     35 O2         -1.8498   -9.5633    5.2416 O.3       1 <0>        -0.2261
     36 H1         -2.5143   -5.4751   -6.3174 H         1 <0>         0.0587
     37 H2         -1.1305   -6.5938   -6.3595 H         1 <0>         0.0588
     38 H3         -2.7008   -7.1441   -5.7274 H         1 <0>         0.0753
     39 H4         -1.9783   -6.3274   -3.6786 H         1 <0>         0.4159
     40 H5          0.9043   -2.6526   -6.1431 H         1 <0>         0.1688
     41 H6          1.5975   -1.8948   -3.8840 H         1 <0>         0.1436
     42 H7          2.0737   -1.3659   -2.1594 H         1 <0>         0.1494
     43 H8          2.6663   -0.7352    0.1676 H         1 <0>         0.1454
     44 H9          1.7195   -2.0082    2.0450 H         1 <0>         0.1636
     45 H10         0.2882   -7.0711    0.1205 H         1 <0>         0.1340
     46 H11        -0.4151   -8.3325    2.1092 H         1 <0>         0.1853
     47 H12        -2.1331   -2.9848    0.3103 H         1 <0>         0.1202
     48 H13        -3.7558   -2.0508    1.8689 H         1 <0>         0.1244
     49 H14        -4.4597   -3.3101    3.8587 H         1 <0>         0.1264
     50 H15        -3.5623   -5.5290    4.3134 H         1 <0>         0.1213
     51 H16        -2.8845   -7.2489    4.4749 H         1 <0>         0.4272
     52 H17         1.7667  -11.0161    3.2921 H         1 <0>         0.1369
     53 H18         1.9587  -13.0284    4.6881 H         1 <0>         0.1381
     54 H19         0.2997  -13.4833    6.4459 H         1 <0>         0.1411
     55 H20        -1.5671  -11.9311    6.8253 H         1 <0>         0.1349
@<TRIPOS>BOND
     1    1    2 1
     2    1   36 1
     3    1   37 1
     4    1   38 1
     5    2    3 1
     6    2   39 1
     7    3    8 ar
     8    3    4 ar
     9    4    5 ar
    10    5    6 ar
    11    5   40 1
    12    6    7 ar
    13    6   41 1
    14    7    8 ar
    15    7    9 1
    16    9   14 ar
    17    9   10 ar
    18   10   11 ar
    19   10   42 1
    20   11   12 ar
    21   11   43 1
    22   12   13 ar
    23   12   44 1
    24   13   14 ar
    25   14   15 1
    26   15   16 1
    27   16   21 ar
    28   16   17 ar
    29   17   18 ar
    30   17   45 1
    31   18   19 ar
    32   18   46 1
    33   19   20 ar
    34   19   26 1
    35   20   25 ar
    36   20   21 ar
    37   21   22 ar
    38   22   23 ar
    39   22   47 1
    40   23   24 ar
    41   23   48 1
    42   24   25 ar
    43   24   49 1
    44   25   50 1
    45   26   27 1
    46   26   51 1
    47   27   35 1
    48   27   28 2
    49   28   29 1
    50   29   34 ar
    51   29   30 ar
    52   30   31 ar
    53   30   52 1
    54   31   32 ar
    55   31   53 1
    56   32   33 ar
    57   32   54 1
    58   33   34 ar
    59   33   55 1
    60   34   35 1
@<TRIPOS>MOLECULE
CHEMBL382939
   79    85     0     0     0
SMALL
USER_CHARGES

@<TRIPOS>ATOM
      1 C1          3.9738   -2.8536    1.5063 C.3       1 <0>         0.0708
      2 N1          2.6200   -2.7563    0.9552 N.pl3     1 <0>        -0.4512
      3 C2          2.2260   -3.1132   -0.3139 C.ar      1 <0>         0.0636
      4 C3          2.8866   -3.6373   -1.4187 C.ar      1 <0>        -0.1139
      5 C4          2.1854   -3.8903   -2.5769 C.ar      1 <0>        -0.0830
      6 C5          0.8232   -3.6257   -2.6492 C.ar      1 <0>        -0.1253
      7 C6          0.1549   -3.1113   -1.5770 C.ar      1 <0>        -0.0533
      8 C7          0.8449   -2.8447   -0.3865 C.ar      1 <0>         0.0429
      9 N2          0.4712   -2.3507    0.8073 N.2       1 <0>        -0.4432
     10 C8          1.5056   -2.2982    1.6082 C.2       1 <0>         0.2154
     11 C9          1.4767   -1.8141    3.0052 C.2       1 <0>         0.6134
     12 O1          2.4971   -1.8029    3.6659 O.2       1 <0>        -0.5105
     13 N3          0.3190   -1.3853    3.5459 N.am      1 <0>        -0.6370
     14 C10         0.2668   -1.0339    4.8988 C.ar      1 <0>         0.1377
     15 C11         1.3734   -0.4580    5.5091 C.ar      1 <0>        -0.0783
     16 C12         1.3253   -0.1104    6.8429 C.ar      1 <0>        -0.1301
     17 C13         0.1645   -0.3368    7.5819 C.ar      1 <0>        -0.0074
     18 C14        -0.9476   -0.9150    6.9710 C.ar      1 <0>        -0.1555
     19 C15        -0.8981   -1.2572    5.6320 C.ar      1 <0>         0.1193
     20 O2         -1.9830   -1.8157    5.0320 O.3       1 <0>        -0.3080
     21 C16        -3.1421   -2.0153    5.8435 C.3       1 <0>         0.0265
     22 C17         0.1131    0.0363    9.0154 C.2       1 <0>         0.1963
     23 C18         0.5403    1.3095    9.5951 C.ar      1 <0>        -0.3272
     24 C19         1.0872    2.4991    9.0859 C.ar      1 <0>         0.5244
     25 N4          1.3611    3.4826    9.9372 N.ar      1 <0>        -0.6000
     26 C20         1.1269    3.3504   11.2309 C.ar      1 <0>         0.3993
     27 N5          0.6166    2.2565   11.7521 N.ar      1 <0>        -0.5842
     28 C21         0.3083    1.2146   10.9798 C.ar      1 <0>         0.3835
     29 N6         -0.2176   -0.0218   11.2094 N.pl3     1 <0>        -0.3888
     30 N7         -0.3294   -0.7124    9.9980 N.2       1 <0>        -0.2478
     31 C22        -0.6101   -0.5442   12.5207 C.3       1 <0>         0.1690
     32 C23         0.1924   -1.8118   12.8279 C.3       1 <0>        -0.1568
     33 C24        -0.2784   -2.3962   14.1615 C.3       1 <0>        -0.0058
     34 N8         -1.7059   -2.7272   14.0780 N.4       1 <0>        -0.3828
     35 C25        -2.4883   -1.5055   13.8549 C.3       1 <0>        -0.0059
     36 C26        -2.1026   -0.8869   12.5096 C.3       1 <0>        -0.1567
     37 C27        -2.1347   -3.3592   15.3329 C.3       1 <0>         0.0234
     38 C28        -1.3342   -4.6455   15.5585 C.3       1 <0>        -0.1794
     39 C29        -1.8418   -5.3375   16.8263 C.3       1 <0>         0.0627
     40 O3         -3.2396   -5.6040   16.6947 O.3       1 <0>        -0.3680
     41 C30        -4.0435   -4.4343   16.5289 C.3       1 <0>         0.0626
     42 C31        -3.6244   -3.7060   15.2492 C.3       1 <0>        -0.1793
     43 N9          1.3345    2.6430    7.7344 N.pl3     1 <0>        -0.8180
     44 H1          4.1083   -3.8313    1.9692 H         1 <0>         0.0805
     45 H2          4.7022   -2.7276    0.7053 H         1 <0>         0.0879
     46 H3          4.1183   -2.0744    2.2547 H         1 <0>         0.1070
     47 H4          3.9453   -3.8449   -1.3693 H         1 <0>         0.1277
     48 H5          2.6984   -4.2972   -3.4357 H         1 <0>         0.1366
     49 H6          0.2876   -3.8292   -3.5647 H         1 <0>         0.1359
     50 H7         -0.9038   -2.9095   -1.6455 H         1 <0>         0.1350
     51 H8         -0.4780   -1.3203    2.9969 H         1 <0>         0.4315
     52 H9          2.2733   -0.2823    4.9383 H         1 <0>         0.1621
     53 H10         2.1872    0.3371    7.3154 H         1 <0>         0.1381
     54 H11        -1.8476   -1.0913    7.5414 H         1 <0>         0.1406
     55 H12        -3.9324   -2.4667    5.2436 H         1 <0>         0.1082
     56 H13        -2.8945   -2.6759    6.6745 H         1 <0>         0.0571
     57 H14        -3.4837   -1.0557    6.2316 H         1 <0>         0.0586
     58 H15         1.3648    4.1745   11.8872 H         1 <0>         0.2093
     59 H16        -0.4142    0.2070   13.2858 H         1 <0>         0.1252
     60 H17         0.0359   -2.5429   12.0347 H         1 <0>         0.1024
     61 H18         1.2521   -1.5650   12.8925 H         1 <0>         0.1184
     62 H19         0.2911   -3.2988   14.3834 H         1 <0>         0.1396
     63 H20        -0.1212   -1.6645   14.9540 H         1 <0>         0.1347
     64 H21        -3.5504   -1.7505   13.8505 H         1 <0>         0.1396
     65 H22        -2.2841   -0.7928   14.6540 H         1 <0>         0.1348
     66 H23        -2.6833    0.0211   12.3466 H         1 <0>         0.1180
     67 H24        -2.3067   -1.5987   11.7097 H         1 <0>         0.1018
     68 H25        -1.9662   -2.6730   16.1629 H         1 <0>         0.1404
     69 H26        -1.4638   -5.3098   14.7041 H         1 <0>         0.0971
     70 H27        -0.2782   -4.4017   15.6746 H         1 <0>         0.1010
     71 H28        -1.3047   -6.2753   16.9684 H         1 <0>         0.1167
     72 H29        -1.6748   -4.6889   17.6862 H         1 <0>         0.0663
     73 H30        -5.0925   -4.7214   16.4567 H         1 <0>         0.1166
     74 H31        -3.9053   -3.7738   17.3849 H         1 <0>         0.0662
     75 H32        -4.2062   -2.7903   15.1440 H         1 <0>         0.1009
     76 H33        -3.8003   -4.3513   14.3885 H         1 <0>         0.0969
     77 H34         1.1520    1.9090    7.1271 H         1 <0>         0.4155
     78 H35         1.6908    3.4780    7.3928 H         1 <0>         0.4153
     79 H36        -1.8576   -3.3670   13.3127 H         1 <0>         0.4232
@<TRIPOS>BOND
     1    1    2 1
     2    1   44 1
     3    1   45 1
     4    1   46 1
     5    2   10 1
     6    2    3 1
     7    3    8 ar
     8    3    4 ar
     9    4    5 ar
    10    4   47 1
    11    5    6 ar
    12    5   48 1
    13    6    7 ar
    14    6   49 1
    15    7    8 ar
    16    7   50 1
    17    8    9 1
    18    9   10 2
    19   10   11 1
    20   11   12 2
    21   11   13 am
    22   13   14 1
    23   13   51 1
    24   14   19 ar
    25   14   15 ar
    26   15   16 ar
    27   15   52 1
    28   16   17 ar
    29   16   53 1
    30   17   18 ar
    31   17   22 1
    32   18   19 ar
    33   18   54 1
    34   19   20 1
    35   20   21 1
    36   21   55 1
    37   21   56 1
    38   21   57 1
    39   22   30 2
    40   22   23 1
    41   23   28 ar
    42   23   24 ar
    43   24   25 ar
    44   24   43 1
    45   25   26 ar
    46   26   27 ar
    47   26   58 1
    48   27   28 ar
    49   28   29 1
    50   29   30 1
    51   29   31 1
    52   31   36 1
    53   31   32 1
    54   31   59 1
    55   32   33 1
    56   32   60 1
    57   32   61 1
    58   33   34 1
    59   33   62 1
    60   33   63 1
    61   34   35 1
    62   34   37 1
    63   34   79 1
    64   35   36 1
    65   35   64 1
    66   35   65 1
    67   36   66 1
    68   36   67 1
    69   37   42 1
    70   37   38 1
    71   37   68 1
    72   38   39 1
    73   38   69 1
    74   38   70 1
    75   39   40 1
    76   39   71 1
    77   39   72 1
    78   40   41 1
    79   41   42 1
    80   41   73 1
    81   41   74 1
    82   42   75 1
    83   42   76 1
    84   43   77 1
    85   43   78 1
@<TRIPOS>MOLECULE
CHEMBL381203
   80    86     0     0     0
SMALL
USER_CHARGES

@<TRIPOS>ATOM
      1 C1         -3.2446   -1.9447    1.3144 C.3       1 <0>         0.0740
      2 N1         -2.4412   -1.0614    0.4655 N.pl3     1 <0>        -0.4485
      3 C2         -2.2819   -1.1858   -0.8945 C.ar      1 <0>         0.1142
      4 C3         -2.7723   -2.0903   -1.8323 C.ar      1 <0>        -0.1312
      5 C4         -2.4291   -1.9547   -3.1587 C.ar      1 <0>        -0.0816
      6 C5         -1.5961   -0.9227   -3.5727 C.ar      1 <0>        -0.1449
      7 C6         -1.1030   -0.0239   -2.6723 C.ar      1 <0>        -0.0615
      8 C7         -1.4379   -0.1402   -1.3169 C.ar      1 <0>        -0.1200
      9 C8         -1.1009    0.6097   -0.1642 C.2       1 <0>        -0.1302
     10 C9         -1.7240    0.0368    0.8989 C.2       1 <0>         0.0097
     11 C10        -1.6445    0.5083    2.2892 C.2       1 <0>         0.5910
     12 O1         -2.1696   -0.1328    3.1800 O.2       1 <0>        -0.5191
     13 N2         -0.9898    1.6507    2.5769 N.am      1 <0>        -0.6497
     14 C11        -0.8736    2.0750    3.9052 C.ar      1 <0>         0.1453
     15 C12        -1.8559    1.7415    4.8282 C.ar      1 <0>        -0.0871
     16 C13        -1.7444    2.1581    6.1383 C.ar      1 <0>        -0.1190
     17 C14        -0.6441    2.9156    6.5388 C.ar      1 <0>        -0.0163
     18 C15         0.3433    3.2514    5.6133 C.ar      1 <0>        -0.1531
     19 C16         0.2313    2.8273    4.3018 C.ar      1 <0>         0.1092
     20 O2          1.1957    3.1482    3.3984 O.3       1 <0>        -0.3121
     21 C17         2.2993    3.9211    3.8745 C.3       1 <0>         0.0275
     22 C18        -0.5246    3.3636    7.9465 C.2       1 <0>         0.1987
     23 C19        -0.7419    2.5436    9.1382 C.ar      1 <0>        -0.3246
     24 C20        -1.0984    1.2050    9.3713 C.ar      1 <0>         0.5241
     25 N3         -1.2079    0.7912   10.6299 N.ar      1 <0>        -0.5975
     26 C21        -0.9882    1.6140   11.6402 C.ar      1 <0>         0.3974
     27 N4         -0.6528    2.8738   11.4702 N.ar      1 <0>        -0.5827
     28 C22        -0.5179    3.3826   10.2455 C.ar      1 <0>         0.3818
     29 N5         -0.1914    4.6106    9.7522 N.pl3     1 <0>        -0.3893
     30 N6         -0.1988    4.5676    8.3540 N.2       1 <0>        -0.2495
     31 C23         0.1226    5.7912   10.5609 C.3       1 <0>         0.1691
     32 C24        -0.8673    6.9133   10.2348 C.3       1 <0>        -0.1565
     33 C25        -0.4855    8.1679   11.0234 C.3       1 <0>        -0.0058
     34 N7          0.8716    8.5880   10.6544 N.4       1 <0>        -0.3827
     35 C26         1.8350    7.5462   11.0299 C.3       1 <0>        -0.0060
     36 C27         1.5425    6.2677   10.2416 C.3       1 <0>        -0.1565
     37 C28         1.2039    9.8356   11.3551 C.3       1 <0>         0.0233
     38 C29         0.2125   10.9307   10.9497 C.3       1 <0>        -0.1793
     39 C30         0.6133   12.2458   11.6232 C.3       1 <0>         0.0626
     40 O3          1.9509   12.5825   11.2494 O.3       1 <0>        -0.3680
     41 C31         2.9277   11.6173   11.6447 C.3       1 <0>         0.0626
     42 C32         2.6199   10.2769   10.9721 C.3       1 <0>        -0.1793
     43 N8         -1.3297    0.3402    8.3190 N.pl3     1 <0>        -0.8201
     44 H1         -4.2304   -1.5048    1.4661 H         1 <0>         0.0739
     45 H2         -3.3506   -2.9158    0.8309 H         1 <0>         0.0837
     46 H3         -2.7507   -2.0705    2.2779 H         1 <0>         0.0987
     47 H4         -3.4199   -2.8963   -1.5202 H         1 <0>         0.1235
     48 H5         -2.8108   -2.6576   -3.8844 H         1 <0>         0.1306
     49 H6         -1.3362   -0.8312   -4.6170 H         1 <0>         0.1273
     50 H7         -0.4559    0.7748   -3.0036 H         1 <0>         0.1267
     51 H8         -0.4663    1.4831   -0.1357 H         1 <0>         0.1521
     52 H9         -0.5992    2.1788    1.8631 H         1 <0>         0.4216
     53 H10        -2.7088    1.1553    4.5197 H         1 <0>         0.1649
     54 H11        -2.5099    1.8978    6.8544 H         1 <0>         0.1378
     55 H12         1.1962    3.8379    5.9212 H         1 <0>         0.1389
     56 H13         1.9357    4.8716    4.2648 H         1 <0>         0.0569
     57 H14         2.8106    3.3746    4.6670 H         1 <0>         0.0575
     58 H15         2.9934    4.1066    3.0548 H         1 <0>         0.1073
     59 H16        -1.0887    1.2362   12.6470 H         1 <0>         0.2090
     60 H17         0.0524    5.5376   11.6186 H         1 <0>         0.1248
     61 H18        -0.8330    7.1300    9.1671 H         1 <0>         0.1024
     62 H19        -1.8745    6.6019   10.5115 H         1 <0>         0.1183
     63 H20        -1.1884    8.9687   10.7937 H         1 <0>         0.1396
     64 H21        -0.5203    7.9501   12.0908 H         1 <0>         0.1346
     65 H22         2.8453    7.8880   10.8051 H         1 <0>         0.1395
     66 H23         1.7507    7.3417   12.0972 H         1 <0>         0.1346
     67 H24         2.2577    5.4948   10.5232 H         1 <0>         0.1178
     68 H25         1.6268    6.4710    9.1741 H         1 <0>         0.1017
     69 H26         1.1509    9.6744   12.4318 H         1 <0>         0.1404
     70 H27         0.2304   11.0556    9.8671 H         1 <0>         0.0971
     71 H28        -0.7912   10.6494   11.2683 H         1 <0>         0.1010
     72 H29        -0.0637   13.0384   11.3045 H         1 <0>         0.1167
     73 H30         0.5561   12.1320   12.7057 H         1 <0>         0.0663
     74 H31         3.9180   11.9572   11.3416 H         1 <0>         0.1166
     75 H32         2.9007   11.4953   12.7276 H         1 <0>         0.0662
     76 H33         3.3378    9.5281   11.3068 H         1 <0>         0.1008
     77 H34         2.6864   10.3887    9.8899 H         1 <0>         0.0969
     78 H35        -1.0272    0.5704    7.4266 H         1 <0>         0.4168
     79 H36        -1.7947   -0.4971    8.4726 H         1 <0>         0.4158
     80 H37         0.9157    8.7421    9.6582 H         1 <0>         0.4231
@<TRIPOS>BOND
     1    1    2 1
     2    1   44 1
     3    1   45 1
     4    1   46 1
     5    2   10 1
     6    2    3 1
     7    3    8 ar
     8    3    4 ar
     9    4    5 ar
    10    4   47 1
    11    5    6 ar
    12    5   48 1
    13    6    7 ar
    14    6   49 1
    15    7    8 ar
    16    7   50 1
    17    8    9 1
    18    9   10 2
    19    9   51 1
    20   10   11 1
    21   11   12 2
    22   11   13 am
    23   13   14 1
    24   13   52 1
    25   14   19 ar
    26   14   15 ar
    27   15   16 ar
    28   15   53 1
    29   16   17 ar
    30   16   54 1
    31   17   18 ar
    32   17   22 1
    33   18   19 ar
    34   18   55 1
    35   19   20 1
    36   20   21 1
    37   21   56 1
    38   21   57 1
    39   21   58 1
    40   22   30 2
    41   22   23 1
    42   23   28 ar
    43   23   24 ar
    44   24   25 ar
    45   24   43 1
    46   25   26 ar
    47   26   27 ar
    48   26   59 1
    49   27   28 ar
    50   28   29 1
    51   29   30 1
    52   29   31 1
    53   31   36 1
    54   31   32 1
    55   31   60 1
    56   32   33 1
    57   32   61 1
    58   32   62 1
    59   33   34 1
    60   33   63 1
    61   33   64 1
    62   34   35 1
    63   34   37 1
    64   34   80 1
    65   35   36 1
    66   35   65 1
    67   35   66 1
    68   36   67 1
    69   36   68 1
    70   37   42 1
    71   37   38 1
    72   37   69 1
    73   38   39 1
    74   38   70 1
    75   38   71 1
    76   39   40 1
    77   39   72 1
    78   39   73 1
    79   40   41 1
    80   41   42 1
    81   41   74 1
    82   41   75 1
    83   42   76 1
    84   42   77 1
    85   43   78 1
    86   43   79 1
@<TRIPOS>MOLECULE
CHEMBL566361
   47    50     0     0     0
SMALL
USER_CHARGES

@<TRIPOS>ATOM
      1 C1         -0.0187    1.5258    0.0104 C.3       1 <0>        -0.1654
      2 C2          0.0021   -0.0041    0.0020 C.3       1 <0>         0.1621
      3 H1          0.5123   -0.3556   -0.8948 H         1 <0>         0.0946
      4 C3          0.7421   -0.5109    1.2415 C.3       1 <0>        -0.0945
      5 C4          0.7628   -2.0407    1.2331 C.3       1 <0>        -0.1131
      6 C5          1.5028   -2.5476    2.4727 C.3       1 <0>        -0.1200
      7 C6          2.9382   -2.0180    2.4618 C.3       1 <0>        -0.1216
      8 C7          2.9174   -0.4882    2.4702 C.3       1 <0>        -0.1193
      9 C8          2.1775    0.0187    1.2307 C.3       1 <0>        -0.1120
     10 N1         -1.3723   -0.5112    0.0124 N.pl3     1 <0>        -0.6858
     11 C9         -2.0691   -0.6463   -1.1758 C.ar      1 <0>         0.6012
     12 N2         -1.4755   -0.3173   -2.3138 N.ar      1 <0>        -0.5742
     13 C10        -2.1101   -0.4334   -3.4702 C.ar      1 <0>         0.2229
     14 C11        -3.4099   -0.9051   -3.4836 C.ar      1 <0>        -0.3096
     15 C12        -4.0076   -1.2430   -2.2700 C.ar      1 <0>         0.4496
     16 N3         -3.3107   -1.1063   -1.1475 N.ar      1 <0>        -0.5936
     17 N4         -5.3157   -1.7219   -2.2357 N.pl3     1 <0>        -0.4403
     18 C13        -6.1340   -1.9190   -3.3094 C.2       1 <0>         0.2752
     19 N5         -7.2859   -2.3754   -2.9144 N.2       1 <0>        -0.4715
     20 C14        -7.2893   -2.5036   -1.5619 C.ar      1 <0>         0.0427
     21 C15        -6.0252   -2.0921   -1.1068 C.ar      1 <0>         0.0569
     22 C16        -5.7341   -2.1207    0.2490 C.ar      1 <0>        -0.0897
     23 C17        -6.6866   -2.5562    1.1462 C.ar      1 <0>        -0.1036
     24 C18        -7.9350   -2.9669    0.7019 C.ar      1 <0>        -0.1200
     25 C19        -8.2441   -2.9377   -0.6392 C.ar      1 <0>        -0.0663
     26 H2          1.0039    1.9031    0.0027 H         1 <0>         0.0712
     27 H3         -0.5459    1.8868   -0.8726 H         1 <0>         0.0603
     28 H4         -0.5289    1.8773    0.9072 H         1 <0>         0.0550
     29 H5          0.2319   -0.1594    2.1383 H         1 <0>         0.0757
     30 H6         -0.2598   -2.4180    1.2409 H         1 <0>         0.0608
     31 H7          1.2730   -2.3923    0.3363 H         1 <0>         0.0627
     32 H8          0.9926   -2.1961    3.3695 H         1 <0>         0.0615
     33 H9          1.5176   -3.6375    2.4667 H         1 <0>         0.0615
     34 H10         3.4654   -2.3791    3.3449 H         1 <0>         0.0613
     35 H11         3.4484   -2.3695    1.5650 H         1 <0>         0.0617
     36 H12         2.4073   -0.1366    3.3670 H         1 <0>         0.0619
     37 H13         3.9400   -0.1109    2.4625 H         1 <0>         0.0639
     38 H14         2.6876   -0.3328    0.3339 H         1 <0>         0.0659
     39 H15         2.1627    1.1086    1.2367 H         1 <0>         0.0691
     40 H16        -1.7940   -0.7522    0.8520 H         1 <0>         0.4126
     41 H17        -1.6181   -0.1625   -4.3926 H         1 <0>         0.1786
     42 H18        -3.9500   -1.0090   -4.4130 H         1 <0>         0.1505
     43 H19        -5.8648   -1.7242   -4.3370 H         1 <0>         0.2231
     44 H20        -4.7638   -1.8030    0.6011 H         1 <0>         0.1381
     45 H21        -6.4590   -2.5781    2.2017 H         1 <0>         0.1328
     46 H22        -8.6723   -3.3062    1.4144 H         1 <0>         0.1334
     47 H23        -9.2177   -3.2599   -0.9780 H         1 <0>         0.1337
@<TRIPOS>BOND
     1    1    2 1
     2    1   26 1
     3    1   27 1
     4    1   28 1
     5    2    3 1
     6    2    4 1
     7    2   10 1
     8    4    9 1
     9    4    5 1
    10    4   29 1
    11    5    6 1
    12    5   30 1
    13    5   31 1
    14    6    7 1
    15    6   32 1
    16    6   33 1
    17    7    8 1
    18    7   34 1
    19    7   35 1
    20    8    9 1
    21    8   36 1
    22    8   37 1
    23    9   38 1
    24    9   39 1
    25   10   11 1
    26   10   40 1
    27   11   16 ar
    28   11   12 ar
    29   12   13 ar
    30   13   14 ar
    31   13   41 1
    32   14   15 ar
    33   14   42 1
    34   15   16 ar
    35   15   17 1
    36   17   21 1
    37   17   18 1
    38   18   19 2
    39   18   43 1
    40   19   20 1
    41   20   25 ar
    42   20   21 ar
    43   21   22 ar
    44   22   23 ar
    45   22   44 1
    46   23   24 ar
    47   23   45 1
    48   24   25 ar
    49   24   46 1
    50   25   47 1
@<TRIPOS>MOLECULE
CHEMBL566373
   57    61     0     0     0
SMALL
USER_CHARGES

@<TRIPOS>ATOM
      1 C1         -1.8368   -2.1528   -3.1993 C.3       1 <0>        -0.1725
      2 C2         -1.1461   -0.7985   -3.3718 C.3       1 <0>         0.1456
      3 N1          0.1691   -0.8354   -2.7275 N.am      1 <0>        -0.6290
      4 C3          0.4418   -0.4814   -1.3265 C.3       1 <0>         0.0926
      5 C4          1.9610   -0.6948   -1.1807 C.3       1 <0>         0.0852
      6 N2          2.3830   -1.1465   -2.5151 N.am      1 <0>        -0.5700
      7 C5          1.3133   -1.2025   -3.3193 C.2       1 <0>         0.7011
      8 O1          1.3758   -1.5513   -4.4825 O.2       1 <0>        -0.5638
      9 C6          3.6947   -1.4722   -2.8848 C.ar      1 <0>         0.1956
     10 C7          3.9477   -1.9969   -4.1505 C.ar      1 <0>        -0.1337
     11 C8          5.2332   -2.3208   -4.5263 C.ar      1 <0>        -0.0579
     12 C9          6.2835   -2.1243   -3.6411 C.ar      1 <0>         0.0343
     13 C10         6.0375   -1.5959   -2.3631 C.ar      1 <0>         0.0744
     14 C11         4.7311   -1.2659   -1.9940 C.ar      1 <0>        -0.1168
     15 N3          7.2360   -1.5167   -1.7279 N.2       1 <0>        -0.4737
     16 C12         8.1785   -1.9508   -2.5118 C.2       1 <0>         0.2797
     17 N4          7.6503   -2.3399   -3.7076 N.pl3     1 <0>        -0.4378
     18 C13         8.3538   -2.8579   -4.7930 C.ar      1 <0>         0.4511
     19 C14         9.7363   -3.0292   -4.7232 C.ar      1 <0>        -0.3087
     20 C15        10.3932   -3.5468   -5.8237 C.ar      1 <0>         0.2228
     21 N5          9.6959   -3.8628   -6.9046 N.ar      1 <0>        -0.5755
     22 C16         8.3831   -3.6891   -6.9423 C.ar      1 <0>         0.6024
     23 N6          7.7169   -3.2007   -5.9068 N.ar      1 <0>        -0.5921
     24 N7          7.6898   -4.0314   -8.0901 N.pl3     1 <0>        -0.6872
     25 C17         8.4079   -4.5783   -9.2440 C.3       1 <0>         0.2013
     26 H1          9.3894   -4.1097   -9.3166 H         1 <0>         0.1030
     27 C18         8.5757   -6.0892   -9.0710 C.3       1 <0>        -0.1576
     28 C19         7.6245   -4.3005  -10.5010 C.ar      1 <0>        -0.0967
     29 C20         6.2467   -4.4127  -10.4957 C.ar      1 <0>        -0.1137
     30 C21         5.5281   -4.1579  -11.6488 C.ar      1 <0>        -0.1144
     31 C22         6.1872   -3.7906  -12.8070 C.ar      1 <0>        -0.1168
     32 C23         7.5649   -3.6775  -12.8121 C.ar      1 <0>        -0.1155
     33 C24         8.2832   -3.9281  -11.6579 C.ar      1 <0>        -0.1057
     34 H2         -1.2287   -2.9319   -3.6590 H         1 <0>         0.0606
     35 H3         -1.9583   -2.3660   -2.1372 H         1 <0>         0.0569
     36 H4         -2.8153   -2.1253   -3.6786 H         1 <0>         0.0715
     37 H5         -1.0246   -0.5853   -4.4338 H         1 <0>         0.0868
     38 H6         -1.7542   -0.0194   -2.9121 H         1 <0>         0.0835
     39 H7          0.1819    0.5602   -1.1375 H         1 <0>         0.0889
     40 H8         -0.1037   -1.1413   -0.6520 H         1 <0>         0.0877
     41 H9          2.4555    0.2407   -0.9194 H         1 <0>         0.0937
     42 H10         2.1698   -1.4607   -0.4338 H         1 <0>         0.0934
     43 H11         3.1316   -2.1509   -4.8409 H         1 <0>         0.1683
     44 H12         5.4230   -2.7275   -5.5087 H         1 <0>         0.1431
     45 H13         4.5314   -0.8552   -1.0153 H         1 <0>         0.1354
     46 H14         9.2263   -1.9962   -2.2537 H         1 <0>         0.2234
     47 H15        10.2813   -2.7631   -3.8295 H         1 <0>         0.1510
     48 H16        11.4632   -3.6917   -5.8026 H         1 <0>         0.1791
     49 H17         6.7284   -3.9091   -8.1306 H         1 <0>         0.4137
     50 H18         9.1100   -6.4961   -9.9295 H         1 <0>         0.0704
     51 H19         9.1423   -6.2901   -8.1618 H         1 <0>         0.0658
     52 H20         7.5942   -6.5578   -8.9984 H         1 <0>         0.0577
     53 H21         5.7318   -4.6997   -9.5908 H         1 <0>         0.1198
     54 H22         4.4517   -4.2463  -11.6448 H         1 <0>         0.1248
     55 H23         5.6258   -3.5922  -13.7081 H         1 <0>         0.1239
     56 H24         8.0799   -3.3908  -13.7171 H         1 <0>         0.1254
     57 H25         9.3593   -3.8362  -11.6609 H         1 <0>         0.1256
@<TRIPOS>BOND
     1    1    2 1
     2    1   34 1
     3    1   35 1
     4    1   36 1
     5    2    3 1
     6    2   37 1
     7    2   38 1
     8    3    7 am
     9    3    4 1
    10    4    5 1
    11    4   39 1
    12    4   40 1
    13    5    6 1
    14    5   41 1
    15    5   42 1
    16    6    7 am
    17    6    9 1
    18    7    8 2
    19    9   14 ar
    20    9   10 ar
    21   10   11 ar
    22   10   43 1
    23   11   12 ar
    24   11   44 1
    25   12   17 1
    26   12   13 ar
    27   13   14 ar
    28   13   15 1
    29   14   45 1
    30   15   16 2
    31   16   17 1
    32   16   46 1
    33   17   18 1
    34   18   23 ar
    35   18   19 ar
    36   19   20 ar
    37   19   47 1
    38   20   21 ar
    39   20   48 1
    40   21   22 ar
    41   22   23 ar
    42   22   24 1
    43   24   25 1
    44   24   49 1
    45   25   26 1
    46   25   27 1
    47   25   28 1
    48   27   50 1
    49   27   51 1
    50   27   52 1
    51   28   33 ar
    52   28   29 ar
    53   29   30 ar
    54   29   53 1
    55   30   31 ar
    56   30   54 1
    57   31   32 ar
    58   31   55 1
    59   32   33 ar
    60   32   56 1
    61   33   57 1
@<TRIPOS>MOLECULE
CHEMBL566362
   60    64     0     0     0
SMALL
USER_CHARGES

@<TRIPOS>ATOM
      1 C1         -0.6692   -0.1807    0.0608 C.3       1 <0>        -0.1696
      2 C2         -0.5944   -1.5587    0.7215 C.3       1 <0>         0.1674
      3 C3          0.3609   -1.5007    1.9152 C.3       1 <0>        -0.1122
      4 C4         -0.2123   -0.5666    2.9834 C.3       1 <0>        -0.1121
      5 C5          0.7264   -0.5335    4.1916 C.3       1 <0>        -0.1350
      6 C6          2.0919    0.0087    3.7575 C.3       1 <0>         0.1077
      7 N1          2.5848   -0.7973    2.6323 N.am      1 <0>        -0.6239
      8 C7          1.7222   -0.9695    1.4554 C.3       1 <0>         0.1285
      9 C8          3.8051   -1.3675    2.6786 C.2       1 <0>         0.7073
     10 O1          4.1639   -2.1092    1.7845 O.2       1 <0>        -0.5684
     11 N2          4.6278   -1.1154    3.7160 N.am      1 <0>        -0.6866
     12 C9          5.9342   -1.6170    3.7109 C.ar      1 <0>         0.1628
     13 C10         6.6274   -1.7407    2.5140 C.ar      1 <0>        -0.1204
     14 C11         7.9168   -2.2356    2.5124 C.ar      1 <0>        -0.0994
     15 C12         8.5176   -2.6078    3.7010 C.ar      1 <0>        -0.1369
     16 C13         7.8298   -2.4862    4.8944 C.ar      1 <0>        -0.0994
     17 C14         6.5422   -1.9866    4.9034 C.ar      1 <0>        -0.1496
     18 N3         -0.1037   -2.5398   -0.2495 N.pl3     1 <0>        -0.6898
     19 C15        -0.9872   -3.1524   -1.1210 C.ar      1 <0>         0.6017
     20 N4         -2.2726   -2.8354   -1.0667 N.ar      1 <0>        -0.5748
     21 C16        -3.1475   -3.4002   -1.8847 C.ar      1 <0>         0.2224
     22 C17        -2.7074   -4.3329   -2.8058 C.ar      1 <0>        -0.3085
     23 C18        -1.3489   -4.6457   -2.8387 C.ar      1 <0>         0.4505
     24 N5         -0.5261   -4.0369   -1.9922 N.ar      1 <0>        -0.5919
     25 N6         -0.8608   -5.5800   -3.7500 N.pl3     1 <0>        -0.4406
     26 C19        -1.5913   -6.2659   -4.6759 C.2       1 <0>         0.2743
     27 N7         -0.8163   -7.0546   -5.3602 N.2       1 <0>        -0.4710
     28 C20         0.4643   -6.9317   -4.9236 C.ar      1 <0>         0.0423
     29 C21         0.4563   -5.9810   -3.8890 C.ar      1 <0>         0.0569
     30 C22         1.6398   -5.6434   -3.2494 C.ar      1 <0>        -0.0891
     31 C23         2.8219   -6.2406   -3.6339 C.ar      1 <0>        -0.1024
     32 C24         2.8360   -7.1772   -4.6571 C.ar      1 <0>        -0.1194
     33 C25         1.6697   -7.5304   -5.2976 C.ar      1 <0>        -0.0668
     34 H1          0.3232    0.1122   -0.2819 H         1 <0>         0.0596
     35 H2         -1.3498   -0.2220   -0.7896 H         1 <0>         0.0639
     36 H3         -1.0343    0.5493    0.7833 H         1 <0>         0.0718
     37 H4         -1.5868   -1.8516    1.0642 H         1 <0>         0.0997
     38 H5          0.4826   -2.5003    2.3327 H         1 <0>         0.0837
     39 H6         -0.3107    0.4381    2.5723 H         1 <0>         0.0743
     40 H7         -1.1921   -0.9289    3.2946 H         1 <0>         0.0739
     41 H8          0.3060    0.1136    4.9613 H         1 <0>         0.0826
     42 H9          0.8448   -1.5419    4.5881 H         1 <0>         0.0693
     43 H10         1.9899    1.0481    3.4455 H         1 <0>         0.0763
     44 H11         2.7929   -0.0581    4.5895 H         1 <0>         0.0763
     45 H12         2.1793   -1.6817    0.7684 H         1 <0>         0.0925
     46 H13         1.5901   -0.0099    0.9556 H         1 <0>         0.0776
     47 H14         4.3143   -0.5863    4.4661 H         1 <0>         0.4052
     48 H15         6.1586   -1.4505    1.5853 H         1 <0>         0.1346
     49 H16         8.4563   -2.3324    1.5818 H         1 <0>         0.1255
     50 H17         9.5259   -2.9945    3.6971 H         1 <0>         0.1234
     51 H18         8.3016   -2.7781    5.8211 H         1 <0>         0.1262
     52 H19         6.0073   -1.8875    5.8364 H         1 <0>         0.1233
     53 H20         0.8404   -2.7601   -0.2815 H         1 <0>         0.4144
     54 H21        -4.1933   -3.1356   -1.8327 H         1 <0>         0.1789
     55 H22        -3.4002   -4.8086   -3.4841 H         1 <0>         0.1508
     56 H23        -2.6573   -6.1684   -4.8193 H         1 <0>         0.2230
     57 H24         1.6356   -4.9144   -2.4526 H         1 <0>         0.1385
     58 H25         3.7430   -5.9771   -3.1353 H         1 <0>         0.1335
     59 H26         3.7682   -7.6376   -4.9492 H         1 <0>         0.1335
     60 H27         1.6884   -8.2595   -6.0941 H         1 <0>         0.1335
@<TRIPOS>BOND
     1    1    2 1
     2    1   34 1
     3    1   35 1
     4    1   36 1
     5    2    3 1
     6    2   18 1
     7    2   37 1
     8    3    8 1
     9    3    4 1
    10    3   38 1
    11    4    5 1
    12    4   39 1
    13    4   40 1
    14    5    6 1
    15    5   41 1
    16    5   42 1
    17    6    7 1
    18    6   43 1
    19    6   44 1
    20    7    8 1
    21    7    9 am
    22    8   45 1
    23    8   46 1
    24    9   10 2
    25    9   11 am
    26   11   12 1
    27   11   47 1
    28   12   17 ar
    29   12   13 ar
    30   13   14 ar
    31   13   48 1
    32   14   15 ar
    33   14   49 1
    34   15   16 ar
    35   15   50 1
    36   16   17 ar
    37   16   51 1
    38   17   52 1
    39   18   19 1
    40   18   53 1
    41   19   24 ar
    42   19   20 ar
    43   20   21 ar
    44   21   22 ar
    45   21   54 1
    46   22   23 ar
    47   22   55 1
    48   23   24 ar
    49   23   25 1
    50   25   29 1
    51   25   26 1
    52   26   27 2
    53   26   56 1
    54   27   28 1
    55   28   33 ar
    56   28   29 ar
    57   29   30 ar
    58   30   31 ar
    59   30   57 1
    60   31   32 ar
    61   31   58 1
    62   32   33 ar
    63   32   59 1
    64   33   60 1
@<TRIPOS>MOLECULE
CHEMBL566362__1
   60    64     0     0     0
SMALL
USER_CHARGES

@<TRIPOS>ATOM
      1 C1         -1.1237   -0.1678   -0.8565 C.3       1 <0>        -0.1640
      2 C2         -1.0457   -1.5642   -0.2363 C.3       1 <0>         0.1670
      3 C3          0.0355   -1.5818    0.8462 C.3       1 <0>        -0.1115
      4 C4         -0.3139   -0.5633    1.9337 C.3       1 <0>        -0.1129
      5 C5          0.7836   -0.5567    3.0003 C.3       1 <0>        -0.1344
      6 C6          0.8707   -1.9431    3.6462 C.3       1 <0>         0.1070
      7 N1          1.0622   -2.9459    2.5896 N.am      1 <0>        -0.6244
      8 C7          0.1141   -2.9798    1.4676 C.3       1 <0>         0.1356
      9 C8          2.0882   -3.8178    2.6482 C.2       1 <0>         0.7072
     10 O1          2.1885   -4.6956    1.8129 O.2       1 <0>        -0.5674
     11 N2          3.0030   -3.7168    3.6327 N.am      1 <0>        -0.6873
     12 C9          4.1462   -4.5237    3.6112 C.ar      1 <0>         0.1637
     13 C10         4.7243   -4.8791    2.3996 C.ar      1 <0>        -0.1203
     14 C11         5.8528   -5.6751    2.3816 C.ar      1 <0>        -0.0991
     15 C12         6.4071   -6.1182    3.5685 C.ar      1 <0>        -0.1371
     16 C13         5.8336   -5.7664    4.7766 C.ar      1 <0>        -0.0991
     17 C14         4.7084   -4.9659    4.8015 C.ar      1 <0>        -0.1496
     18 N3         -0.7127   -2.5421   -1.2751 N.pl3     1 <0>        -0.6892
     19 C15        -1.7150   -3.0900   -2.0565 C.ar      1 <0>         0.6021
     20 N4         -2.9696   -2.7145   -1.8549 N.ar      1 <0>        -0.5748
     21 C16        -3.9551   -3.2165   -2.5830 C.ar      1 <0>         0.2225
     22 C17        -3.6645   -4.1448   -3.5657 C.ar      1 <0>        -0.3084
     23 C18        -2.3348   -4.5200   -3.7541 C.ar      1 <0>         0.4505
     24 N5         -1.3957   -3.9725   -2.9909 N.ar      1 <0>        -0.5912
     25 N6         -1.9956   -5.4526   -4.7324 N.pl3     1 <0>        -0.4406
     26 C19        -2.8555   -6.0795   -5.5861 C.2       1 <0>         0.2745
     27 N7         -2.1995   -6.8859   -6.3674 N.2       1 <0>        -0.4711
     28 C20        -0.8745   -6.8345   -6.0717 C.ar      1 <0>         0.0424
     29 C21        -0.7228   -5.9113   -5.0234 C.ar      1 <0>         0.0572
     30 C22         0.5384   -5.6461   -4.5110 C.ar      1 <0>        -0.0887
     31 C23         1.6408   -6.2881   -5.0351 C.ar      1 <0>        -0.1027
     32 C24         1.4971   -7.1978   -6.0725 C.ar      1 <0>        -0.1195
     33 C25         0.2520   -7.4792   -6.5881 C.ar      1 <0>        -0.0667
     34 H1         -0.1612    0.0870   -1.3002 H         1 <0>         0.0561
     35 H2         -1.8939   -0.1552   -1.6277 H         1 <0>         0.0636
     36 H3         -1.3714    0.5598   -0.0837 H         1 <0>         0.0717
     37 H4         -2.0082   -1.8190    0.2074 H         1 <0>         0.0979
     38 H5          0.9980   -1.3260    0.4031 H         1 <0>         0.0825
     39 H6         -0.3946    0.4288    1.4896 H         1 <0>         0.0774
     40 H7         -1.2647   -0.8340    2.3927 H         1 <0>         0.0715
     41 H8          1.7392   -0.3103    2.5375 H         1 <0>         0.0698
     42 H9          0.5458    0.1854    3.7624 H         1 <0>         0.0822
     43 H10         1.7146   -1.9728    4.3354 H         1 <0>         0.0762
     44 H11        -0.0524   -2.1532    4.1864 H         1 <0>         0.0756
     45 H12        -0.8707   -3.2744    1.8302 H         1 <0>         0.0688
     46 H13         0.4589   -3.6935    0.7194 H         1 <0>         0.0953
     47 H14         2.8691   -3.0848    4.3563 H         1 <0>         0.4051
     48 H15         4.2916   -4.5336    1.4722 H         1 <0>         0.1326
     49 H16         6.3026   -5.9522    1.4397 H         1 <0>         0.1255
     50 H17         7.2895   -6.7406    3.5518 H         1 <0>         0.1235
     51 H18         6.2686   -6.1143    5.7019 H         1 <0>         0.1264
     52 H19         4.2637   -4.6875    5.7455 H         1 <0>         0.1236
     53 H20         0.2103   -2.8055   -1.4152 H         1 <0>         0.4143
     54 H21        -4.9746   -2.9045   -2.4111 H         1 <0>         0.1788
     55 H22        -4.4496   -4.5699   -4.1733 H         1 <0>         0.1507
     56 H23        -3.9246   -5.9284   -5.6094 H         1 <0>         0.2229
     57 H24         0.6571   -4.9384   -3.7039 H         1 <0>         0.1384
     58 H25         2.6225   -6.0809   -4.6355 H         1 <0>         0.1330
     59 H26         2.3681   -7.6938   -6.4747 H         1 <0>         0.1334
     60 H27         0.1479   -8.1878   -7.3965 H         1 <0>         0.1335
@<TRIPOS>BOND
     1    1    2 1
     2    1   34 1
     3    1   35 1
     4    1   36 1
     5    2    3 1
     6    2   18 1
     7    2   37 1
     8    3    8 1
     9    3    4 1
    10    3   38 1
    11    4    5 1
    12    4   39 1
    13    4   40 1
    14    5    6 1
    15    5   41 1
    16    5   42 1
    17    6    7 1
    18    6   43 1
    19    6   44 1
    20    7    8 1
    21    7    9 am
    22    8   45 1
    23    8   46 1
    24    9   10 2
    25    9   11 am
    26   11   12 1
    27   11   47 1
    28   12   17 ar
    29   12   13 ar
    30   13   14 ar
    31   13   48 1
    32   14   15 ar
    33   14   49 1
    34   15   16 ar
    35   15   50 1
    36   16   17 ar
    37   16   51 1
    38   17   52 1
    39   18   19 1
    40   18   53 1
    41   19   24 ar
    42   19   20 ar
    43   20   21 ar
    44   21   22 ar
    45   21   54 1
    46   22   23 ar
    47   22   55 1
    48   23   24 ar
    49   23   25 1
    50   25   29 1
    51   25   26 1
    52   26   27 2
    53   26   56 1
    54   27   28 1
    55   28   33 ar
    56   28   29 ar
    57   29   30 ar
    58   30   31 ar
    59   30   57 1
    60   31   32 ar
    61   31   58 1
    62   32   33 ar
    63   32   59 1
    64   33   60 1
@<TRIPOS>MOLECULE
CHEMBL566362__2
   60    64     0     0     0
SMALL
USER_CHARGES

@<TRIPOS>ATOM
      1 C1          1.0037    2.6135   -1.3054 C.3       1 <0>        -0.1642
      2 C2          1.1219    1.1722   -0.8058 C.3       1 <0>         0.1669
      3 C3          1.4208    0.2461   -1.9864 C.3       1 <0>        -0.1116
      4 C4          0.2842    0.3366   -3.0072 C.3       1 <0>        -0.1128
      5 C5          0.5979   -0.5645   -4.2037 C.3       1 <0>        -0.1345
      6 C6          0.7071   -2.0170   -3.7292 C.3       1 <0>         0.1072
      7 N1          1.6963   -2.0873   -2.6452 N.am      1 <0>        -0.6245
      8 C7          1.5393   -1.1972   -1.4868 C.3       1 <0>         0.1351
      9 C8          2.7279   -2.9520   -2.7119 C.2       1 <0>         0.7072
     10 O1          3.5916   -2.9352   -1.8562 O.2       1 <0>        -0.5679
     11 N2          2.8021   -3.8355   -3.7270 N.am      1 <0>        -0.6867
     12 C9          3.8106   -4.8057   -3.7379 C.ar      1 <0>         0.1630
     13 C10         4.2711   -5.3441   -2.5436 C.ar      1 <0>        -0.1205
     14 C11         5.2662   -6.3018   -2.5578 C.ar      1 <0>        -0.0994
     15 C12         5.8038   -6.7246   -3.7596 C.ar      1 <0>        -0.1369
     16 C13         5.3476   -6.1901   -4.9506 C.ar      1 <0>        -0.0994
     17 C14         4.3488   -5.2363   -4.9435 C.ar      1 <0>        -0.1495
     18 N3          2.2084    1.0822    0.1728 N.pl3     1 <0>        -0.6891
     19 C15         1.9689    1.3832    1.5023 C.ar      1 <0>         0.6021
     20 N4          0.7496    1.7457    1.8732 N.ar      1 <0>        -0.5749
     21 C16         0.4825    2.0407    3.1361 C.ar      1 <0>         0.2224
     22 C17         1.4940    1.9676    4.0760 C.ar      1 <0>        -0.3086
     23 C18         2.7666    1.5830    3.6552 C.ar      1 <0>         0.4505
     24 N5          2.9629    1.2964    2.3732 N.ar      1 <0>        -0.5912
     25 N6          3.8162    1.4961    4.5675 N.pl3     1 <0>        -0.4405
     26 C19         3.7486    1.7509    5.9061 C.2       1 <0>         0.2744
     27 N7          4.9142    1.5709    6.4538 N.2       1 <0>        -0.4711
     28 C20         5.8115    1.1885    5.5081 C.ar      1 <0>         0.0423
     29 C21         5.1205    1.1294    4.2860 C.ar      1 <0>         0.0571
     30 C22         5.7893    0.7567    3.1295 C.ar      1 <0>        -0.0886
     31 C23         7.1310    0.4423    3.1840 C.ar      1 <0>        -0.1026
     32 C24         7.8171    0.4956    4.3885 C.ar      1 <0>        -0.1194
     33 C25         7.1714    0.8711    5.5448 C.ar      1 <0>        -0.0668
     34 H1          1.9408    2.9135   -1.7744 H         1 <0>         0.0562
     35 H2          0.1953    2.6805   -2.0336 H         1 <0>         0.0717
     36 H3          0.7907    3.2733   -0.4644 H         1 <0>         0.0633
     37 H4          0.1848    0.8722   -0.3369 H         1 <0>         0.0979
     38 H5          2.3573    0.5464   -2.4563 H         1 <0>         0.0828
     39 H6         -0.6473    0.0128   -2.5431 H         1 <0>         0.0715
     40 H7          0.1817    1.3675   -3.3460 H         1 <0>         0.0773
     41 H8         -0.2007   -0.4816   -4.9409 H         1 <0>         0.0824
     42 H9          1.5420   -0.2567   -4.6533 H         1 <0>         0.0696
     43 H10        -0.2619   -2.3553   -3.3622 H         1 <0>         0.0756
     44 H11         1.0273   -2.6489   -4.5576 H         1 <0>         0.0761
     45 H12         2.4086   -1.2882   -0.8355 H         1 <0>         0.0959
     46 H13         0.6382   -1.4687   -0.9368 H         1 <0>         0.0691
     47 H14         2.1565   -3.7988   -4.4500 H         1 <0>         0.4051
     48 H15         3.8519   -5.0140   -1.6046 H         1 <0>         0.1341
     49 H16         5.6251   -6.7206   -1.6292 H         1 <0>         0.1254
     50 H17         6.5818   -7.4736   -3.7681 H         1 <0>         0.1235
     51 H18         5.7697   -6.5222   -5.8876 H         1 <0>         0.1263
     52 H19         3.9896   -4.8227   -5.8742 H         1 <0>         0.1234
     53 H20         3.0956    0.8117   -0.1110 H         1 <0>         0.4148
     54 H21        -0.5144    2.3356    3.4288 H         1 <0>         0.1787
     55 H22         1.3028    2.2032    5.1125 H         1 <0>         0.1506
     56 H23         2.8575    2.0576    6.4336 H         1 <0>         0.2229
     57 H24         5.2607    0.7125    2.1888 H         1 <0>         0.1385
     58 H25         7.6510    0.1522    2.2829 H         1 <0>         0.1331
     59 H26         8.8676    0.2467    4.4182 H         1 <0>         0.1334
     60 H27         7.7117    0.9094    6.4792 H         1 <0>         0.1335
@<TRIPOS>BOND
     1    1    2 1
     2    1   34 1
     3    1   35 1
     4    1   36 1
     5    2    3 1
     6    2   18 1
     7    2   37 1
     8    3    8 1
     9    3    4 1
    10    3   38 1
    11    4    5 1
    12    4   39 1
    13    4   40 1
    14    5    6 1
    15    5   41 1
    16    5   42 1
    17    6    7 1
    18    6   43 1
    19    6   44 1
    20    7    8 1
    21    7    9 am
    22    8   45 1
    23    8   46 1
    24    9   10 2
    25    9   11 am
    26   11   12 1
    27   11   47 1
    28   12   17 ar
    29   12   13 ar
    30   13   14 ar
    31   13   48 1
    32   14   15 ar
    33   14   49 1
    34   15   16 ar
    35   15   50 1
    36   16   17 ar
    37   16   51 1
    38   17   52 1
    39   18   19 1
    40   18   53 1
    41   19   24 ar
    42   19   20 ar
    43   20   21 ar
    44   21   22 ar
    45   21   54 1
    46   22   23 ar
    47   22   55 1
    48   23   24 ar
    49   23   25 1
    50   25   29 1
    51   25   26 1
    52   26   27 2
    53   26   56 1
    54   27   28 1
    55   28   33 ar
    56   28   29 ar
    57   29   30 ar
    58   30   31 ar
    59   30   57 1
    60   31   32 ar
    61   31   58 1
    62   32   33 ar
    63   32   59 1
    64   33   60 1
@<TRIPOS>MOLECULE
CHEMBL566362__3
   60    64     0     0     0
SMALL
USER_CHARGES

@<TRIPOS>ATOM
      1 C1          0.9246    2.9276   -0.3629 C.3       1 <0>        -0.1695
      2 C2          1.0866    1.5307    0.2398 C.3       1 <0>         0.1674
      3 C3          1.4714    0.5413   -0.8620 C.3       1 <0>        -0.1118
      4 C4          0.3760    0.5153   -1.9305 C.3       1 <0>        -0.1127
      5 C5          0.7443   -0.4981   -3.0165 C.3       1 <0>        -0.1350
      6 C6          2.0578   -0.0738   -3.6809 C.3       1 <0>         0.1076
      7 N1          3.0813    0.0943   -2.6404 N.am      1 <0>        -0.6236
      8 C7          2.7931    0.9774   -1.5020 C.3       1 <0>         0.1295
      9 C8          4.2621   -0.5496   -2.7282 C.2       1 <0>         0.7074
     10 O1          5.1323   -0.3385   -1.9057 O.2       1 <0>        -0.5679
     11 N2          4.4782   -1.4275   -3.7277 N.am      1 <0>        -0.6871
     12 C9          5.6416   -2.2052   -3.7366 C.ar      1 <0>         0.1636
     13 C10         6.2024   -2.6320   -2.5401 C.ar      1 <0>        -0.1203
     14 C11         7.3504   -3.3998   -2.5523 C.ar      1 <0>        -0.0991
     15 C12         7.9414   -3.7434   -3.7543 C.ar      1 <0>        -0.1369
     16 C13         7.3857   -3.3195   -4.9475 C.ar      1 <0>        -0.0991
     17 C14         6.2345   -2.5564   -4.9422 C.ar      1 <0>        -0.1494
     18 N3          2.1374    1.5580    1.2603 N.pl3     1 <0>        -0.6902
     19 C15         1.8337    1.9371    2.5563 C.ar      1 <0>         0.6015
     20 N4          0.5862    2.2670    2.8574 N.ar      1 <0>        -0.5747
     21 C16         0.2577    2.6344    4.0864 C.ar      1 <0>         0.2225
     22 C17         1.2344    2.6724    5.0645 C.ar      1 <0>        -0.3084
     23 C18         2.5380    2.3197    4.7170 C.ar      1 <0>         0.4504
     24 N5          2.7961    1.9560    3.4659 N.ar      1 <0>        -0.5918
     25 N6          3.5544    2.3439    5.6699 N.pl3     1 <0>        -0.4406
     26 C19         3.4239    2.6857    6.9842 C.2       1 <0>         0.2743
     27 N7          4.5743    2.5977    7.5842 N.2       1 <0>        -0.4710
     28 C20         5.5233    2.1940    6.6999 C.ar      1 <0>         0.0423
     29 C21         4.8834    2.0199    5.4612 C.ar      1 <0>         0.0569
     30 C22         5.6122    1.6010    4.3579 C.ar      1 <0>        -0.0891
     31 C23         6.9633    1.3536    4.4818 C.ar      1 <0>        -0.1023
     32 C24         7.5993    1.5206    5.7033 C.ar      1 <0>        -0.1194
     33 C25         6.8934    1.9433    6.8070 C.ar      1 <0>        -0.0668
     34 H1          1.8651    3.2383   -0.8180 H         1 <0>         0.0591
     35 H2          0.1428    2.9073   -1.1222 H         1 <0>         0.0725
     36 H3          0.6505    3.6325    0.4221 H         1 <0>         0.0636
     37 H4          0.1461    1.2200    0.6949 H         1 <0>         0.1000
     38 H5          1.5858   -0.4543   -0.4333 H         1 <0>         0.0833
     39 H6         -0.5710    0.2291   -1.4728 H         1 <0>         0.0742
     40 H7          0.2793    1.5056   -2.3756 H         1 <0>         0.0750
     41 H8          0.8653   -1.4841   -2.5680 H         1 <0>         0.0695
     42 H9         -0.0474   -0.5331   -3.7650 H         1 <0>         0.0825
     43 H10         2.3758   -0.8423   -4.3855 H         1 <0>         0.0765
     44 H11         1.9130    0.8698   -4.2070 H         1 <0>         0.0763
     45 H12         2.7083    2.0068   -1.8504 H         1 <0>         0.0764
     46 H13         3.5963    0.9025   -0.7689 H         1 <0>         0.0917
     47 H14         3.8272   -1.5204   -4.4408 H         1 <0>         0.4053
     48 H15         5.7415   -2.3637   -1.6010 H         1 <0>         0.1326
     49 H16         7.7873   -3.7318   -1.6221 H         1 <0>         0.1254
     50 H17         8.8391   -4.3439   -3.7612 H         1 <0>         0.1236
     51 H18         7.8498   -3.5893   -5.8847 H         1 <0>         0.1264
     52 H19         5.7983   -2.2296   -5.8746 H         1 <0>         0.1236
     53 H20         3.0459    1.3103    1.0277 H         1 <0>         0.4140
     54 H21        -0.7617    2.9019    4.3223 H         1 <0>         0.1790
     55 H22         0.9932    2.9689    6.0746 H         1 <0>         0.1508
     56 H23         2.5005    2.9858    7.4571 H         1 <0>         0.2230
     57 H24         5.1227    1.4684    3.4044 H         1 <0>         0.1384
     58 H25         7.5299    1.0275    3.6222 H         1 <0>         0.1336
     59 H26         8.6578    1.3233    5.7876 H         1 <0>         0.1335
     60 H27         7.3950    2.0701    7.7551 H         1 <0>         0.1335
@<TRIPOS>BOND
     1    1    2 1
     2    1   34 1
     3    1   35 1
     4    1   36 1
     5    2    3 1
     6    2   18 1
     7    2   37 1
     8    3    8 1
     9    3    4 1
    10    3   38 1
    11    4    5 1
    12    4   39 1
    13    4   40 1
    14    5    6 1
    15    5   41 1
    16    5   42 1
    17    6    7 1
    18    6   43 1
    19    6   44 1
    20    7    8 1
    21    7    9 am
    22    8   45 1
    23    8   46 1
    24    9   10 2
    25    9   11 am
    26   11   12 1
    27   11   47 1
    28   12   17 ar
    29   12   13 ar
    30   13   14 ar
    31   13   48 1
    32   14   15 ar
    33   14   49 1
    34   15   16 ar
    35   15   50 1
    36   16   17 ar
    37   16   51 1
    38   17   52 1
    39   18   19 1
    40   18   53 1
    41   19   24 ar
    42   19   20 ar
    43   20   21 ar
    44   21   22 ar
    45   21   54 1
    46   22   23 ar
    47   22   55 1
    48   23   24 ar
    49   23   25 1
    50   25   29 1
    51   25   26 1
    52   26   27 2
    53   26   56 1
    54   27   28 1
    55   28   33 ar
    56   28   29 ar
    57   29   30 ar
    58   30   31 ar
    59   30   57 1
    60   31   32 ar
    61   31   58 1
    62   32   33 ar
    63   32   59 1
    64   33   60 1
@<TRIPOS>MOLECULE
CHEMBL350710
   77    78     0     0     0
SMALL
USER_CHARGES

@<TRIPOS>ATOM
      1 C1         -0.0187    1.5258    0.0104 C.3       1 <0>        -0.1587
      2 C2          0.0021   -0.0041    0.0020 C.3       1 <0>         0.1837
      3 H1          0.5123   -0.3556   -0.8948 H         1 <0>         0.0983
      4 C3          0.7309   -0.5033    1.2229 C.ar      1 <0>        -0.0925
      5 C4          0.0808   -0.5585    2.4416 C.ar      1 <0>        -0.1105
      6 C5          0.7494   -1.0164    3.5615 C.ar      1 <0>        -0.1136
      7 C6          2.0680   -1.4196    3.4626 C.ar      1 <0>        -0.0766
      8 C7          2.7178   -1.3652    2.2438 C.ar      1 <0>        -0.1107
      9 C8          2.0479   -0.9113    1.1230 C.ar      1 <0>        -0.1035
     10 C9          2.7971   -1.9178    4.6837 C.3       1 <0>        -0.0577
     11 C10         3.2618   -3.3565    4.4486 C.3       1 <0>        -0.1450
     12 C11         4.0118   -1.0268    4.9514 C.3       1 <0>        -0.1444
     13 N1         -1.3723   -0.5112    0.0124 N.am      1 <0>        -0.7234
     14 C12        -2.0508   -0.6427   -1.1446 C.2       1 <0>         0.5140
     15 O1         -1.5236   -0.3413   -2.1944 O.2       1 <0>        -0.5252
     16 C13        -3.4646   -1.1643   -1.1339 C.3       1 <0>         0.1302
     17 H2         -4.0912   -0.5035   -0.5349 H         1 <0>         0.1160
     18 C14        -3.4849   -2.5707   -0.5316 C.3       1 <0>        -0.1186
     19 C15        -4.9321   -3.0508   -0.4057 C.3       1 <0>        -0.0937
     20 C16        -4.9477   -4.5019    0.0791 C.3       1 <0>        -0.1455
     21 C17        -5.6762   -2.1693    0.5994 C.3       1 <0>        -0.1376
     22 N2         -3.9776   -1.2130   -2.5053 N.am      1 <0>        -0.7181
     23 C18        -5.3048   -1.1506   -2.7310 C.2       1 <0>         0.5098
     24 O2         -6.0746   -1.0541   -1.7988 O.2       1 <0>        -0.4988
     25 C19        -5.8325   -1.2007   -4.1417 C.3       1 <0>         0.1411
     26 H3         -5.2610   -1.9284   -4.7178 H         1 <0>         0.1096
     27 C20        -5.6966    0.1802   -4.7864 C.3       1 <0>        -0.0732
     28 C21        -6.1092    0.1017   -6.2337 C.ar      1 <0>        -0.1405
     29 C22        -5.1699   -0.1948   -7.2040 C.ar      1 <0>        -0.1018
     30 C23        -5.5456   -0.2669   -8.5315 C.ar      1 <0>        -0.1435
     31 C24        -6.8666   -0.0419   -8.8905 C.ar      1 <0>         0.1845
     32 C25        -7.8072    0.2550   -7.9150 C.ar      1 <0>        -0.1509
     33 C26        -7.4275    0.3208   -6.5883 C.ar      1 <0>        -0.0905
     34 O3         -7.2386   -0.1118  -10.1958 O.3       1 <0>        -0.6652
     35 P1         -7.7051   -1.5792  -10.6661 P.3       1 <0>         2.0869
     36 O4         -6.5724   -2.6140  -10.3487 O.2       1 <0>        -1.1638
     37 O5         -9.0107   -1.9827   -9.8998 O.3       1 <0>        -1.1642
     38 O6         -7.9862   -1.5689  -12.2073 O.3       1 <0>        -1.1566
     39 N3         -7.2437   -1.5934   -4.1216 N.am      1 <0>        -0.7116
     40 C27        -8.1445   -0.8369   -3.4638 C.2       1 <0>         0.5234
     41 O7         -7.7867    0.1691   -2.8885 O.2       1 <0>        -0.5293
     42 C28        -9.5961   -1.2409   -3.4431 C.3       1 <0>        -0.1747
     43 H4          1.0039    1.9031    0.0027 H         1 <0>         0.0668
     44 H5         -0.5459    1.8868   -0.8726 H         1 <0>         0.0681
     45 H6         -0.5289    1.8773    0.9072 H         1 <0>         0.0583
     46 H7         -0.9493   -0.2435    2.5188 H         1 <0>         0.1208
     47 H8          0.2417   -1.0589    4.5138 H         1 <0>         0.1218
     48 H9          3.7481   -1.6798    2.1666 H         1 <0>         0.1220
     49 H10         2.5545   -0.8723    0.1700 H         1 <0>         0.1249
     50 H11         2.1281   -1.8881    5.5438 H         1 <0>         0.0767
     51 H12         3.9308   -3.3862    3.5886 H         1 <0>         0.0571
     52 H13         3.7892   -3.7169    5.3318 H         1 <0>         0.0572
     53 H14         2.3965   -3.9912    4.2579 H         1 <0>         0.0566
     54 H15         3.6807   -0.0019    5.1189 H         1 <0>         0.0558
     55 H16         4.5392   -1.3873    5.8346 H         1 <0>         0.0571
     56 H17         4.6808   -1.0566    4.0914 H         1 <0>         0.0570
     57 H18        -1.7940   -0.7522    0.8520 H         1 <0>         0.4001
     58 H19        -2.9313   -3.2511   -1.1788 H         1 <0>         0.0704
     59 H20        -3.0217   -2.5501    0.4549 H         1 <0>         0.0691
     60 H21        -5.4219   -2.9870   -1.3773 H         1 <0>         0.0835
     61 H22        -4.4579   -4.5656    1.0508 H         1 <0>         0.0480
     62 H23        -5.9787   -4.8439    0.1689 H         1 <0>         0.0537
     63 H24        -4.4176   -5.1299   -0.6369 H         1 <0>         0.0508
     64 H25        -5.1864   -2.2330    1.5710 H         1 <0>         0.0359
     65 H26        -5.6651   -1.1355    0.2540 H         1 <0>         0.0744
     66 H27        -6.7073   -2.5113    0.6891 H         1 <0>         0.0486
     67 H28        -3.3620   -1.2902   -3.2510 H         1 <0>         0.4097
     68 H29        -6.3378    0.8899   -4.2637 H         1 <0>         0.0932
     69 H30        -4.6600    0.5110   -4.7216 H         1 <0>         0.0732
     70 H31        -4.1417   -0.3699   -6.9240 H         1 <0>         0.1122
     71 H32        -4.8114   -0.4979   -9.2891 H         1 <0>         0.1226
     72 H33        -8.8362    0.4306   -8.1920 H         1 <0>         0.1230
     73 H34        -8.1602    0.5476   -5.8280 H         1 <0>         0.1066
     74 H35        -7.5298   -2.3980   -4.5818 H         1 <0>         0.4095
     75 H36        -9.7817   -1.8854   -2.5838 H         1 <0>         0.0857
     76 H37       -10.2202   -0.3502   -3.3707 H         1 <0>         0.0878
     77 H38        -9.8365   -1.7794   -4.3598 H         1 <0>         0.0842
@<TRIPOS>BOND
     1    1    2 1
     2    1   43 1
     3    1   44 1
     4    1   45 1
     5    2    3 1
     6    2    4 1
     7    2   13 1
     8    4    9 ar
     9    4    5 ar
    10    5    6 ar
    11    5   46 1
    12    6    7 ar
    13    6   47 1
    14    7    8 ar
    15    7   10 1
    16    8    9 ar
    17    8   48 1
    18    9   49 1
    19   10   11 1
    20   10   12 1
    21   10   50 1
    22   11   51 1
    23   11   52 1
    24   11   53 1
    25   12   54 1
    26   12   55 1
    27   12   56 1
    28   13   14 am
    29   13   57 1
    30   14   15 2
    31   14   16 1
    32   16   17 1
    33   16   18 1
    34   16   22 1
    35   18   19 1
    36   18   58 1
    37   18   59 1
    38   19   20 1
    39   19   21 1
    40   19   60 1
    41   20   61 1
    42   20   62 1
    43   20   63 1
    44   21   64 1
    45   21   65 1
    46   21   66 1
    47   22   23 am
    48   22   67 1
    49   23   24 2
    50   23   25 1
    51   25   26 1
    52   25   27 1
    53   25   39 1
    54   27   28 1
    55   27   68 1
    56   27   69 1
    57   28   33 ar
    58   28   29 ar
    59   29   30 ar
    60   29   70 1
    61   30   31 ar
    62   30   71 1
    63   31   32 ar
    64   31   34 1
    65   32   33 ar
    66   32   72 1
    67   33   73 1
    68   34   35 1
    69   35   36 2
    70   35   37 1
    71   35   38 1
    72   39   40 am
    73   39   74 1
    74   40   41 2
    75   40   42 1
    76   42   75 1
    77   42   76 1
    78   42   77 1
@<TRIPOS>MOLECULE
CHEMBL350710__1
   78    79     0     0     0
SMALL
USER_CHARGES

@<TRIPOS>ATOM
      1 C1         -0.9459    2.4063   -0.0412 C.3       1 <0>        -0.1593
      2 C2         -0.7105    0.9503    0.3657 C.3       1 <0>         0.1823
      3 H1          0.0722    0.5204   -0.2593 H         1 <0>         0.0984
      4 C3         -0.2865    0.8949    1.8108 C.ar      1 <0>        -0.0956
      5 C4         -1.2348    0.9800    2.8130 C.ar      1 <0>        -0.1108
      6 C5         -0.8459    0.9292    4.1386 C.ar      1 <0>        -0.1122
      7 C6          0.4912    0.7928    4.4619 C.ar      1 <0>        -0.0736
      8 C7          1.4393    0.7068    3.4596 C.ar      1 <0>        -0.1098
      9 C8          1.0500    0.7533    2.1340 C.ar      1 <0>        -0.1029
     10 C9          0.9153    0.7384    5.9069 C.3       1 <0>        -0.0584
     11 C10         1.6229   -0.5902    6.1811 C.3       1 <0>        -0.1449
     12 C11         1.8714    1.8958    6.2018 C.3       1 <0>        -0.1449
     13 N1         -1.9492    0.1879    0.1906 N.am      1 <0>        -0.7219
     14 C12        -2.2550   -0.3335   -1.0140 C.2       1 <0>         0.5175
     15 O1         -1.5348   -0.1225   -1.9666 O.2       1 <0>        -0.5281
     16 C13        -3.4920   -1.1787   -1.1771 C.3       1 <0>         0.1303
     17 H2         -4.3391   -0.6771   -0.7094 H         1 <0>         0.1112
     18 C14        -3.2724   -2.5381   -0.5101 C.3       1 <0>        -0.1205
     19 C15        -3.0206   -2.3374    0.9857 C.3       1 <0>        -0.1125
     20 C16        -4.2877   -1.7921    1.6475 C.3       1 <0>        -0.1555
     21 C17        -2.6477   -3.6768    1.6242 C.3       1 <0>        -0.1429
     22 N2         -3.7660   -1.3731   -2.6031 N.am      1 <0>        -0.7203
     23 C18        -5.0076   -1.7014   -3.0120 C.2       1 <0>         0.5100
     24 O2         -5.9171   -1.7489   -2.2112 O.2       1 <0>        -0.5053
     25 C19        -5.2656   -2.0094   -4.4645 C.3       1 <0>         0.1421
     26 H3         -4.4366   -2.5927   -4.8651 H         1 <0>         0.1128
     27 C20        -5.3946   -0.7016   -5.2481 C.3       1 <0>        -0.0853
     28 C21        -5.5299   -1.0077   -6.7174 C.ar      1 <0>        -0.1069
     29 C22        -4.4003   -1.1074   -7.5085 C.ar      1 <0>        -0.1016
     30 C23        -4.5217   -1.3875   -8.8558 C.ar      1 <0>        -0.1275
     31 C24        -5.7783   -1.5691   -9.4149 C.ar      1 <0>         0.1467
     32 C25        -6.9102   -1.4690   -8.6189 C.ar      1 <0>        -0.1330
     33 C26        -6.7832   -1.1939   -7.2711 C.ar      1 <0>        -0.0911
     34 O3         -5.9004   -1.8443  -10.7401 O.3       1 <0>        -0.6608
     35 P1         -5.8809   -3.4163  -11.0871 P.3       1 <0>         2.1701
     36 O4         -4.6013   -4.0565  -10.5041 O.2       1 <0>        -1.0859
     37 O5         -7.1237   -4.0954  -10.4697 O.3       1 <0>        -1.0856
     38 O6         -5.8996   -3.6135  -12.6848 O.3       1 <0>        -0.8940
     39 N3         -6.5073   -2.7771   -4.5877 N.am      1 <0>        -0.7158
     40 C27        -7.6704   -2.2514   -4.1547 C.2       1 <0>         0.5202
     41 O7         -7.6890   -1.1429   -3.6630 O.2       1 <0>        -0.5240
     42 C28        -8.9476   -3.0411   -4.2815 C.3       1 <0>        -0.1745
     43 H4         -0.0243    2.9735    0.0890 H         1 <0>         0.0682
     44 H5         -1.2526    2.4464   -1.0865 H         1 <0>         0.0680
     45 H6         -1.7286    2.8362    0.5838 H         1 <0>         0.0588
     46 H7         -2.2794    1.0866    2.5605 H         1 <0>         0.1187
     47 H8         -1.5866    0.9964    4.9216 H         1 <0>         0.1225
     48 H9          2.4840    0.6006    3.7122 H         1 <0>         0.1227
     49 H10         1.7904    0.6823    1.3509 H         1 <0>         0.1246
     50 H11         0.0367    0.8209    6.5468 H         1 <0>         0.0773
     51 H12         2.5014   -0.6727    5.5413 H         1 <0>         0.0569
     52 H13         1.9296   -0.6295    7.2263 H         1 <0>         0.0581
     53 H14         0.9417   -1.4148    5.9711 H         1 <0>         0.0564
     54 H15         1.3673    2.8423    6.0065 H         1 <0>         0.0560
     55 H16         2.1782    1.8565    7.2470 H         1 <0>         0.0581
     56 H17         2.7500    1.8133    5.5620 H         1 <0>         0.0570
     57 H18        -2.5492    0.0584    0.9417 H         1 <0>         0.4033
     58 H19        -4.1578   -3.1584   -0.6495 H         1 <0>         0.0843
     59 H20        -2.4101   -3.0290   -0.9610 H         1 <0>         0.0724
     60 H21        -2.2042   -1.6287    1.1248 H         1 <0>         0.0812
     61 H22        -5.0838   -2.5330    1.5738 H         1 <0>         0.0632
     62 H23        -4.0862   -1.5786    2.6973 H         1 <0>         0.0572
     63 H24        -4.5958   -0.8763    1.1431 H         1 <0>         0.0542
     64 H25        -1.7450   -4.0653    1.1527 H         1 <0>         0.0543
     65 H26        -2.4683   -3.5339    2.6898 H         1 <0>         0.0557
     66 H27        -3.4641   -4.3855    1.4851 H         1 <0>         0.0564
     67 H28        -3.0539   -1.2655   -3.2529 H         1 <0>         0.4105
     68 H29        -6.2766   -0.1593   -4.9072 H         1 <0>         0.0999
     69 H30        -4.5068   -0.0909   -5.0844 H         1 <0>         0.0804
     70 H31        -3.4223   -0.9659   -7.0728 H         1 <0>         0.1238
     71 H32        -3.6391   -1.4646   -9.4734 H         1 <0>         0.1288
     72 H33        -7.8895   -1.6100   -9.0518 H         1 <0>         0.1297
     73 H34        -7.6637   -1.1202   -6.6501 H         1 <0>         0.1179
     74 H35        -5.8892   -4.5384  -12.9671 H         1 <0>         0.4162
     75 H36        -6.4924   -3.6636   -4.9810 H         1 <0>         0.4091
     76 H37        -9.0947   -3.6407   -3.3832 H         1 <0>         0.0892
     77 H38        -9.7873   -2.3568   -4.4031 H         1 <0>         0.0900
     78 H39        -8.8847   -3.6969   -5.1499 H         1 <0>         0.0828
@<TRIPOS>BOND
     1    1    2 1
     2    1   43 1
     3    1   44 1
     4    1   45 1
     5    2    3 1
     6    2    4 1
     7    2   13 1
     8    4    9 ar
     9    4    5 ar
    10    5    6 ar
    11    5   46 1
    12    6    7 ar
    13    6   47 1
    14    7    8 ar
    15    7   10 1
    16    8    9 ar
    17    8   48 1
    18    9   49 1
    19   10   11 1
    20   10   12 1
    21   10   50 1
    22   11   51 1
    23   11   52 1
    24   11   53 1
    25   12   54 1
    26   12   55 1
    27   12   56 1
    28   13   14 am
    29   13   57 1
    30   14   15 2
    31   14   16 1
    32   16   17 1
    33   16   18 1
    34   16   22 1
    35   18   19 1
    36   18   58 1
    37   18   59 1
    38   19   20 1
    39   19   21 1
    40   19   60 1
    41   20   61 1
    42   20   62 1
    43   20   63 1
    44   21   64 1
    45   21   65 1
    46   21   66 1
    47   22   23 am
    48   22   67 1
    49   23   24 2
    50   23   25 1
    51   25   26 1
    52   25   27 1
    53   25   39 1
    54   27   28 1
    55   27   68 1
    56   27   69 1
    57   28   33 ar
    58   28   29 ar
    59   29   30 ar
    60   29   70 1
    61   30   31 ar
    62   30   71 1
    63   31   32 ar
    64   31   34 1
    65   32   33 ar
    66   32   72 1
    67   33   73 1
    68   34   35 1
    69   35   36 2
    70   35   37 1
    71   35   38 1
    72   38   74 1
    73   39   40 am
    74   39   75 1
    75   40   41 2
    76   40   42 1
    77   42   76 1
    78   42   77 1
    79   42   78 1
@<TRIPOS>MOLECULE
CHEMBL88009
   54    57     0     0     0
SMALL
USER_CHARGES

@<TRIPOS>ATOM
      1 C1         -1.4172    1.1775    0.2225 C.3       1 <0>        -0.1162
      2 C2         -0.7178   -0.1514    0.0957 C.ar      1 <0>        -0.0842
      3 C3         -0.7330   -0.8285   -1.1085 C.ar      1 <0>        -0.1046
      4 C4         -0.0914   -2.0475   -1.2265 C.ar      1 <0>        -0.1030
      5 C5          0.5678   -2.5936   -0.1402 C.ar      1 <0>        -0.1056
      6 C6          0.5871   -1.9218    1.0671 C.ar      1 <0>        -0.0234
      7 C7         -0.0527   -0.6935    1.1871 C.ar      1 <0>         0.1393
      8 N1         -0.0310   -0.0077    2.4063 N.am      1 <0>        -0.6682
      9 C8         -0.4055   -0.6347    3.5390 C.2       1 <0>         0.5547
     10 O1         -0.6653   -1.8227    3.5190 O.2       1 <0>        -0.4884
     11 C9         -0.5002    0.1195    4.8024 C.ar      1 <0>        -0.1028
     12 C10        -0.2088    1.4905    4.8363 C.ar      1 <0>        -0.0749
     13 C11        -0.2900    2.2030    5.9867 C.ar      1 <0>        -0.0615
     14 C12        -0.6741    1.5860    7.2034 C.ar      1 <0>         0.1186
     15 C13        -0.9633    0.2006    7.1436 C.ar      1 <0>        -0.1566
     16 C14        -0.8880   -0.5209    5.9844 C.ar      1 <0>         0.0067
     17 S1         -1.3894   -0.1703    8.8282 S.3       1 <0>         0.0796
     18 C15        -1.1651    1.4773    9.4836 C.2       1 <0>         0.3341
     19 N2         -0.7991    2.1554    8.4179 N.2       1 <0>        -0.4908
     20 N3         -1.3337    1.9245   10.7789 N.pl3     1 <0>        -0.5571
     21 C16        -1.2130    3.2767   11.0675 C.ar      1 <0>         0.5187
     22 C17        -1.4919    3.7550   12.3493 C.ar      1 <0>        -0.2625
     23 C18        -1.3583    5.1085   12.5911 C.ar      1 <0>         0.2511
     24 N4         -0.9723    5.9076   11.6073 N.ar      1 <0>        -0.5686
     25 C19        -0.7147    5.4261   10.4003 C.ar      1 <0>         0.6521
     26 N5         -0.8250    4.1341   10.1294 N.ar      1 <0>        -0.5203
     27 N6         -0.3142    6.2936    9.3991 N.pl3     1 <0>        -0.6592
     28 C20        -0.1799    7.7250    9.6806 C.3       1 <0>         0.0901
     29 C21         0.2724    8.4537    8.4135 C.3       1 <0>         0.0638
     30 O2         -0.7491    8.3583    7.4188 O.3       1 <0>        -0.5733
     31 C22        -1.6490    5.6701   13.9590 C.3       1 <0>        -0.1411
     32 Cl1         1.4143   -2.6078    2.4305 Cl        1 <0>        -0.0457
     33 H1         -0.7239    1.9788   -0.0332 H         1 <0>         0.0759
     34 H2         -2.2704    1.2051   -0.4552 H         1 <0>         0.0764
     35 H3         -1.7630    1.3096    1.2477 H         1 <0>         0.0662
     36 H4         -1.2472   -0.4052   -1.9587 H         1 <0>         0.1354
     37 H5         -0.1054   -2.5746   -2.1690 H         1 <0>         0.1372
     38 H6          1.0678   -3.5462   -0.2356 H         1 <0>         0.1385
     39 H7          0.2537    0.9191    2.4364 H         1 <0>         0.4104
     40 H8          0.0873    1.9900    3.9257 H         1 <0>         0.1402
     41 H9         -0.0578    3.2577    5.9759 H         1 <0>         0.1418
     42 H10        -1.1214   -1.5754    5.9821 H         1 <0>         0.1539
     43 H11        -1.5365    1.2936   11.4873 H         1 <0>         0.4574
     44 H12        -1.8054    3.0822   13.1338 H         1 <0>         0.1912
     45 H13        -0.1225    5.9539    8.5110 H         1 <0>         0.4464
     46 H14        -1.1413    8.1233   10.0051 H         1 <0>         0.0948
     47 H15         0.5591    7.8727   10.4680 H         1 <0>         0.1007
     48 H16         0.4579    9.5027    8.6443 H         1 <0>         0.0838
     49 H17         1.1882    7.9966    8.0389 H         1 <0>         0.0671
     50 H18        -0.5300    8.7991    6.5865 H         1 <0>         0.3989
     51 H19        -0.7376    5.6608   14.5567 H         1 <0>         0.1209
     52 H20        -2.0095    6.6942   13.8621 H         1 <0>         0.1009
     53 H21        -2.4101    5.0616   14.4474 H         1 <0>         0.1219
     54 H22        -0.8773    6.8586   11.7730 H         1 <0>         0.4394
@<TRIPOS>BOND
     1    1    2 1
     2    1   33 1
     3    1   34 1
     4    1   35 1
     5    2    7 ar
     6    2    3 ar
     7    3    4 ar
     8    3   36 1
     9    4    5 ar
    10    4   37 1
    11    5    6 ar
    12    5   38 1
    13    6    7 ar
    14    6   32 1
    15    7    8 1
    16    8    9 am
    17    8   39 1
    18    9   10 2
    19    9   11 1
    20   11   16 ar
    21   11   12 ar
    22   12   13 ar
    23   12   40 1
    24   13   14 ar
    25   13   41 1
    26   14   19 1
    27   14   15 ar
    28   15   16 ar
    29   15   17 1
    30   16   42 1
    31   17   18 1
    32   18   19 2
    33   18   20 1
    34   20   21 1
    35   20   43 1
    36   21   26 ar
    37   21   22 ar
    38   22   23 ar
    39   22   44 1
    40   23   24 ar
    41   23   31 1
    42   24   25 ar
    43   24   54 1
    44   25   26 ar
    45   25   27 1
    46   27   28 1
    47   27   45 1
    48   28   29 1
    49   28   46 1
    50   28   47 1
    51   29   30 1
    52   29   48 1
    53   29   49 1
    54   30   50 1
    55   31   51 1
    56   31   52 1
    57   31   53 1
@<TRIPOS>MOLECULE
CHEMBL86939
   65    69     0     0     0
SMALL
USER_CHARGES

@<TRIPOS>ATOM
      1 C1         -0.8892   -3.6867   20.1514 C.3       1 <0>        -0.1165
      2 C2         -2.0075   -4.6110   19.7439 C.ar      1 <0>        -0.0847
      3 C3         -2.3167   -5.7082   20.5244 C.ar      1 <0>        -0.1049
      4 C4         -3.3425   -6.5570   20.1518 C.ar      1 <0>        -0.1047
      5 C5         -4.0630   -6.3110   18.9972 C.ar      1 <0>        -0.1062
      6 C6         -3.7595   -5.2152   18.2121 C.ar      1 <0>        -0.0238
      7 C7         -2.7317   -4.3574   18.5870 C.ar      1 <0>         0.1416
      8 N1         -2.4245   -3.2442   17.7973 N.am      1 <0>        -0.6699
      9 C8         -2.2006   -3.3957   16.4770 C.2       1 <0>         0.5578
     10 O1         -2.3641   -4.4809   15.9531 O.2       1 <0>        -0.4929
     11 C9         -1.7575   -2.2456   15.6676 C.ar      1 <0>        -0.1179
     12 C10        -1.5601   -0.9911   16.2618 C.ar      1 <0>        -0.0724
     13 C11        -1.1536    0.0794   15.5364 C.ar      1 <0>        -0.0710
     14 C12        -0.9112   -0.0300   14.1443 C.ar      1 <0>         0.1329
     15 C13        -1.1171   -1.3072   13.5673 C.ar      1 <0>        -0.1641
     16 C14        -1.5219   -2.3910   14.2961 C.ar      1 <0>         0.0106
     17 S1         -0.7160   -1.0206   11.8602 S.3       1 <0>         0.0320
     18 C15        -0.3145    0.7143   12.0130 C.2       1 <0>         0.3735
     19 N2         -0.5075    0.9348   13.2952 N.2       1 <0>        -0.5052
     20 N3          0.0947    1.5976   11.0347 N.pl3     1 <0>        -0.5933
     21 C16         0.4654    2.8946   11.3788 C.ar      1 <0>         0.3885
     22 C17         0.9839    3.7440   10.4070 C.ar      1 <0>        -0.1946
     23 C18         1.3482    5.0302   10.7627 C.ar      1 <0>        -0.0775
     24 C19         1.1809    5.4249   12.0835 C.ar      1 <0>        -0.1881
     25 C20         0.6600    4.5294   12.9960 C.ar      1 <0>         0.1608
     26 N4          0.3161    3.3102   12.6269 N.ar      1 <0>        -0.4547
     27 C21         1.9143    5.9813    9.7400 C.3       1 <0>         0.0456
     28 N5          0.8198    6.7340    9.1127 N.4       1 <0>        -0.3856
     29 C22        -0.0372    5.8120    8.3558 C.3       1 <0>        -0.0082
     30 C23        -1.1882    6.5929    7.7176 C.3       1 <0>         0.0411
     31 N6         -0.6410    7.6246    6.8252 N.3       1 <0>        -0.3856
     32 C24         0.2392    8.5406    7.5643 C.3       1 <0>        -0.0014
     33 C25         1.3784    7.7437    8.2038 C.3       1 <0>         0.0032
     34 N7         -1.7065    8.3527    6.1555 N.3       1 <0>        -0.5215
     35 C26        -1.6014    8.2159    4.6966 C.3       1 <0>         0.0325
     36 Cl1        -4.6638   -4.9071   16.7627 Cl        1 <0>        -0.0458
     37 H1         -1.2849   -2.8972   20.7903 H         1 <0>         0.0759
     38 H2         -0.1324   -4.2504   20.6969 H         1 <0>         0.0758
     39 H3         -0.4413   -3.2439   19.2618 H         1 <0>         0.0670
     40 H4         -1.7561   -5.9034   21.4267 H         1 <0>         0.1348
     41 H5         -3.5814   -7.4144   20.7636 H         1 <0>         0.1364
     42 H6         -4.8635   -6.9762   18.7088 H         1 <0>         0.1377
     43 H7         -2.3726   -2.3633   18.2001 H         1 <0>         0.4107
     44 H8         -1.7363   -0.8750   17.3210 H         1 <0>         0.1372
     45 H9         -1.0124    1.0311   16.0271 H         1 <0>         0.1414
     46 H10        -1.6628   -3.3487   13.8170 H         1 <0>         0.1497
     47 H11         0.1240    1.3147   10.1073 H         1 <0>         0.4422
     48 H12         1.1009    3.4038    9.3887 H         1 <0>         0.1468
     49 H13         1.4557    6.4222   12.3938 H         1 <0>         0.1468
     50 H14         0.5281    4.8322   14.0243 H         1 <0>         0.1732
     51 H15         2.5989    6.6748   10.2285 H         1 <0>         0.1458
     52 H16         2.4513    5.4174    8.9773 H         1 <0>         0.1429
     53 H17         0.5501    5.3279    7.5755 H         1 <0>         0.1394
     54 H18        -0.4406    5.0556    9.0290 H         1 <0>         0.1375
     55 H19        -1.8159    5.9112    7.1436 H         1 <0>         0.1274
     56 H20        -1.7837    7.0659    8.4984 H         1 <0>         0.0650
     57 H21         0.6529    9.2800    6.8785 H         1 <0>         0.1225
     58 H22        -0.3328    9.0458    8.3426 H         1 <0>         0.0684
     59 H23         2.0244    8.4194    8.7643 H         1 <0>         0.1405
     60 H24         1.9584    7.2497    7.4243 H         1 <0>         0.1405
     61 H25        -1.7076    9.3241    6.4284 H         1 <0>         0.3440
     62 H26        -0.6429    8.6132    4.3626 H         1 <0>         0.0361
     63 H27        -1.6729    7.1629    4.4244 H         1 <0>         0.0762
     64 H28        -2.4103    8.7701    4.2205 H         1 <0>         0.0858
     65 H29         0.2731    7.1907    9.8273 H         1 <0>         0.4229
@<TRIPOS>BOND
     1    1    2 1
     2    1   37 1
     3    1   38 1
     4    1   39 1
     5    2    7 ar
     6    2    3 ar
     7    3    4 ar
     8    3   40 1
     9    4    5 ar
    10    4   41 1
    11    5    6 ar
    12    5   42 1
    13    6    7 ar
    14    6   36 1
    15    7    8 1
    16    8    9 am
    17    8   43 1
    18    9   10 2
    19    9   11 1
    20   11   16 ar
    21   11   12 ar
    22   12   13 ar
    23   12   44 1
    24   13   14 ar
    25   13   45 1
    26   14   19 1
    27   14   15 ar
    28   15   16 ar
    29   15   17 1
    30   16   46 1
    31   17   18 1
    32   18   19 2
    33   18   20 1
    34   20   21 1
    35   20   47 1
    36   21   26 ar
    37   21   22 ar
    38   22   23 ar
    39   22   48 1
    40   23   24 ar
    41   23   27 1
    42   24   25 ar
    43   24   49 1
    44   25   26 ar
    45   25   50 1
    46   27   28 1
    47   27   51 1
    48   27   52 1
    49   28   33 1
    50   28   29 1
    51   28   65 1
    52   29   30 1
    53   29   53 1
    54   29   54 1
    55   30   31 1
    56   30   55 1
    57   30   56 1
    58   31   32 1
    59   31   34 1
    60   32   33 1
    61   32   57 1
    62   32   58 1
    63   33   59 1
    64   33   60 1
    65   34   35 1
    66   34   61 1
    67   35   62 1
    68   35   63 1
    69   35   64 1
