@<TRIPOS>MOLECULE
2OF2-547
 58 62 0 0 0
SMALL
SF_CHARGES


@<TRIPOS>ATOM
1    C        23.3130   35.2040   82.6920  C.2        1 SUBUNIT      0.1868
2    N        24.6110   34.9970   82.3530  N.2        1 SUBUNIT     -0.5119
3    C        25.6330   35.8390   82.7690  C.2        1 SUBUNIT      0.4046
4    C        25.3670   36.9590   83.5920  C.2        1 SUBUNIT     -0.0568
5    C        23.9760   37.2040   83.9840  C.2        1 SUBUNIT      0.1116
6    C        22.9540   36.2980   83.5210  C.2        1 SUBUNIT     -0.1321
7    O        26.9560   35.7210   82.4870  O.3        1 SUBUNIT     -0.2175
8    C        27.5720   36.7840   83.1180  C.2        1 SUBUNIT      0.1212
9    C        26.5570   37.6280   83.8630  C.2        1 SUBUNIT     -0.0326
10   C        26.7120   38.8560   84.6820  C.2        1 SUBUNIT     -0.0139
11   C        27.0220   40.1120   84.0560  C.2        1 SUBUNIT     -0.1071
12   C        27.1840   41.2830   84.8650  C.2        1 SUBUNIT     -0.1007
13   C        27.0370   41.1890   86.2990  C.2        1 SUBUNIT     -0.1001
14   C        26.7220   39.9280   86.9320  C.2        1 SUBUNIT     -0.1007
15   C        26.5620   38.7590   86.1200  C.2        1 SUBUNIT     -0.1071
16   C        29.0530   36.9920   83.0270  C.2        1 SUBUNIT     -0.0217
17   C        29.7860   36.2420   82.0450  C.2        1 SUBUNIT     -0.1062
18   C        31.2050   36.4270   81.9230  C.2        1 SUBUNIT     -0.1009
19   C        31.8890   37.3710   82.7800  C.2        1 SUBUNIT     -0.1008
20   C        31.1680   38.1210   83.7630  C.2        1 SUBUNIT     -0.1009
21   C        29.7640   37.9300   83.8800  C.2        1 SUBUNIT     -0.1062
22   N        23.6700   38.2800   84.7910  N.pl3      1 SUBUNIT     -0.5488
23   C        22.3130   38.5930   85.2200  C.3        1 SUBUNIT      0.1388
24   C        22.2460   39.8340   86.1150  C.3        1 SUBUNIT      0.1954
25   N        23.0260   41.0020   85.6340  N.4        1 SUBUNIT     -0.3085
26   C        23.2340   41.8710   86.8240  C.3        1 SUBUNIT      0.1930
27   C        24.0340   43.1270   86.4310  C.3        1 SUBUNIT      0.1947
28   N        23.3110   43.8450   85.3400  N.4        1 SUBUNIT     -0.3603
29   C        23.0980   42.9700   84.1440  C.3        1 SUBUNIT      0.1947
30   C        22.2740   41.7390   84.5800  C.3        1 SUBUNIT      0.1930
31   H        22.5692   34.5221   82.3185  H          1 SUBUNIT      0.0846
32   H        21.9244   36.4434   83.7976  H          1 SUBUNIT      0.1143
33   H        27.1320   40.1741   82.9874  H          1 SUBUNIT      0.1158
34   H        27.4142   42.2268   84.4023  H          1 SUBUNIT      0.1159
35   H        27.1638   42.0698   86.9039  H          1 SUBUNIT      0.1159
36   H        26.6081   39.8634   88.0000  H          1 SUBUNIT      0.1159
37   H        26.3313   37.8150   86.5819  H          1 SUBUNIT      0.1158
38   H        29.2746   35.5452   81.4041  H          1 SUBUNIT      0.1164
39   H        31.7564   35.8613   81.1925  H          1 SUBUNIT      0.1169
40   H        32.9508   37.5148   82.6817  H          1 SUBUNIT      0.1171
41   H        31.6771   38.8188   84.4046  H          1 SUBUNIT      0.1169
42   H        29.2265   38.4975   84.6195  H          1 SUBUNIT      0.1164
43   H        24.4400   38.8610   85.0835  H          1 SUBUNIT      0.3308
44   H        21.7053   38.7598   84.3245  H          1 SUBUNIT      0.0405
45   H        21.9246   37.7293   85.7697  H          1 SUBUNIT      0.0405
46   H        21.1996   40.1460   86.1972  H          1 SUBUNIT      0.0409
47   H        22.6268   39.5673   87.1064  H          1 SUBUNIT      0.0409
48   H        23.9013   40.7135   85.2256  H          1 SUBUNIT      0.3866
49   H        22.2575   42.1649   87.2228  H          1 SUBUNIT      0.0364
50   H        23.7839   41.3055   87.5835  H          1 SUBUNIT      0.0364
51   H        24.1331   43.7921   87.2952  H          1 SUBUNIT      0.0367
52   H        25.0288   42.8397   86.0749  H          1 SUBUNIT      0.0367
53   H        22.4144   44.1471   85.6876  H          1 SUBUNIT      0.3831
54   H        23.8532   44.6488   85.0643  H          1 SUBUNIT      0.3831
55   H        22.5570   43.5316   83.3753  H          1 SUBUNIT      0.0367
56   H        24.0687   42.6522   83.7494  H          1 SUBUNIT      0.0367
57   H        22.1104   41.0752   83.7246  H          1 SUBUNIT      0.0364
58   H        21.3080   42.0586   84.9847  H          1 SUBUNIT      0.0364
@<TRIPOS>BOND
     1    1    2 2
     2    1    6 1
     3    2    3 1
     4    3    4 2
     5    3    7 1
     6    4    5 1
     7    4    9 1
     8    5    6 2
     9    5   22 1
    10    7    8 1
    11    8    9 2
    12    8   16 1
    13    9   10 1
    14   10   11 2
    15   10   15 1
    16   11   12 1
    17   12   13 2
    18   13   14 1
    19   14   15 2
    20   16   17 2
    21   16   21 1
    22   17   18 1
    23   18   19 2
    24   19   20 1
    25   20   21 2
    26   22   23 1
    27   23   24 1
    28   24   25 1
    29   25   26 1
    30   25   30 1
    31   26   27 1
    32   27   28 1
    33   28   29 1
    34   29   30 1
    35    1   31 1
    36    6   32 1
    37   11   33 1
    38   12   34 1
    39   13   35 1
    40   14   36 1
    41   15   37 1
    42   17   38 1
    43   18   39 1
    44   19   40 1
    45   20   41 1
    46   21   42 1
    47   22   43 1
    48   23   44 1
    49   23   45 1
    50   24   46 1
    51   24   47 1
    52   25   48 1
    53   26   49 1
    54   26   50 1
    55   27   51 1
    56   27   52 1
    57   28   53 1
    58   28   54 1
    59   29   55 1
    60   29   56 1
    61   30   57 1
    62   30   58 1
