@<TRIPOS>MOLECULE
3MAX-LLX
 38 40 0 0 0
SMALL
SF_CHARGES


@<TRIPOS>ATOM
1    N        65.8820   28.8880   -1.6780  N.pl3      1 SUBUNIT     -0.6444
2    C        65.4500   28.7330   -0.3430  C.2        1 SUBUNIT      0.1124
3    C        64.2210   28.1250   -0.0690  C.2        1 SUBUNIT     -0.1147
4    C        63.7890   27.9790    1.2410  C.2        1 SUBUNIT     -0.1090
5    C        64.5660   28.4370    2.3170  C.2        1 SUBUNIT     -0.0134
6    C        65.7920   29.0770    2.0410  C.2        1 SUBUNIT     -0.1207
7    C        66.2210   29.2180    0.7260  C.2        1 SUBUNIT      0.0997
8    N        67.4780   29.7880    0.4590  N.am       1 SUBUNIT     -0.5388
9    C        67.6220   30.8320   -0.3730  C.2        1 SUBUNIT      0.6567
10   O        66.6320   31.3230   -0.8890  O.2        1 SUBUNIT     -0.5539
11   C        69.0040   31.3170   -0.6050  C.2        1 SUBUNIT     -0.0444
12   C        70.0600   30.4160   -0.4870  C.2        1 SUBUNIT     -0.1132
13   C        71.3670   30.8260   -0.6850  C.2        1 SUBUNIT     -0.1084
14   C        71.6380   32.1460   -1.0050  C.2        1 SUBUNIT     -0.1084
15   C        70.5940   33.0570   -1.1190  C.2        1 SUBUNIT     -0.1084
16   C        69.2780   32.6580   -0.9160  C.2        1 SUBUNIT     -0.1132
17   C        64.0950   28.3080    3.7300  C.2        1 SUBUNIT     -0.0203
18   C        65.0120   28.1180    4.7740  C.2        1 SUBUNIT     -0.1142
19   C        64.5540   28.0390    6.0880  C.2        1 SUBUNIT     -0.1093
20   C        63.1940   28.1440    6.3880  C.2        1 SUBUNIT     -0.1093
21   C        62.2730   28.3410    5.3640  C.2        1 SUBUNIT     -0.1093
22   C        62.7200   28.4250    4.0480  C.2        1 SUBUNIT     -0.1142
23   H        66.7683   29.3266   -1.8732  H          1 SUBUNIT      0.3252
24   H        65.3041   28.5601   -2.4360  H          1 SUBUNIT      0.3252
25   H        63.6046   27.7674   -0.8752  H          1 SUBUNIT      0.1094
26   H        62.8412   27.5058    1.4293  H          1 SUBUNIT      0.1102
27   H        66.4003   29.4584    2.8425  H          1 SUBUNIT      0.1109
28   H        68.3087   29.4181    0.8939  H          1 SUBUNIT      0.3239
29   H        69.8606   29.3881   -0.2390  H          1 SUBUNIT      0.1111
30   H        72.1725   30.1189   -0.5902  H          1 SUBUNIT      0.1115
31   H        72.6537   32.4634   -1.1645  H          1 SUBUNIT      0.1117
32   H        70.8069   34.0821   -1.3671  H          1 SUBUNIT      0.1115
33   H        68.4797   33.3748   -0.9977  H          1 SUBUNIT      0.1111
34   H        66.0641   28.0333    4.5650  H          1 SUBUNIT      0.1073
35   H        65.2621   27.8944    6.8852  H          1 SUBUNIT      0.1074
36   H        62.8575   28.0730    7.4076  H          1 SUBUNIT      0.1074
37   H        61.2241   28.4277    5.5876  H          1 SUBUNIT      0.1074
38   H        62.0001   28.5819    3.2639  H          1 SUBUNIT      0.1073
@<TRIPOS>BOND
     1    1    2 1
     2    2    3 1
     3    2    7 2
     4    3    4 2
     5    4    5 1
     6    5    6 2
     7    5   17 1
     8    6    7 1
     9    7    8 1
    10    8    9 1
    11    9   10 2
    12    9   11 1
    13   11   12 2
    14   11   16 1
    15   12   13 1
    16   13   14 2
    17   14   15 1
    18   15   16 2
    19   17   18 2
    20   17   22 1
    21   18   19 1
    22   19   20 2
    23   20   21 1
    24   21   22 2
    25    1   23 1
    26    1   24 1
    27    3   25 1
    28    4   26 1
    29    6   27 1
    30    8   28 1
    31   12   29 1
    32   13   30 1
    33   14   31 1
    34   15   32 1
    35   16   33 1
    36   18   34 1
    37   19   35 1
    38   20   36 1
    39   21   37 1
    40   22   38 1
