@<TRIPOS>MOLECULE
CHEMBL10131
   57    59     0     0     0
SMALL
USER_CHARGES

@<TRIPOS>ATOM
      1 C1         -0.0187    1.5258    0.0104 C.3       1 <0>        -0.1756
      2 C2          0.0021   -0.0041    0.0020 C.3       1 <0>         0.1051
      3 N1          0.6878   -0.4765   -1.2033 N.pl3     1 <0>        -0.5964
      4 C3          2.1353   -0.7012   -1.1821 C.3       1 <0>         0.1030
      5 C4          2.4212   -2.1448   -0.7635 C.3       1 <0>        -0.1747
      6 C5         -0.0345   -0.7115   -2.3663 C.ar      1 <0>         0.3027
      7 C6         -1.4140   -0.4902   -2.3832 C.ar      1 <0>        -0.2170
      8 C7         -2.1377   -0.7280   -3.5120 C.ar      1 <0>         0.0195
      9 C8         -1.4976   -1.2083   -4.6664 C.ar      1 <0>        -0.2499
     10 C9         -2.2434   -1.4932   -5.8341 C.2       1 <0>         0.1334
     11 C10        -1.6015   -2.1516   -6.8780 C.2       1 <0>        -0.3472
     12 C11        -0.1935   -2.5330   -6.6733 C.2       1 <0>         0.5421
     13 O1          0.3002   -3.4665   -7.2780 O.2       1 <0>        -0.4760
     14 O2          0.5322   -1.8089   -5.7898 O.3       1 <0>        -0.2691
     15 C12        -0.1008   -1.4033   -4.6625 C.ar      1 <0>         0.2155
     16 C13         0.6200   -1.1592   -3.5061 C.ar      1 <0>        -0.2352
     17 C14        -2.3012   -2.4554   -8.1362 C.2       1 <0>         0.5986
     18 O3         -3.4644   -2.1297   -8.2791 O.2       1 <0>        -0.5214
     19 N2         -1.6533   -3.0946   -9.1302 N.am      1 <0>        -0.7520
     20 C15        -2.3500   -3.3970  -10.3830 C.3       1 <0>         0.1028
     21 C16        -1.3957   -4.1203  -11.3354 C.3       1 <0>         0.0259
     22 H1         -0.5856   -3.4518  -11.6268 H         1 <0>         0.1597
     23 C17        -2.1627   -4.5929  -12.5884 C.3       1 <0>         0.0689
     24 C18        -1.5290   -5.9776  -12.8845 C.3       1 <0>         0.0607
     25 H2         -2.2292   -6.6217  -13.4165 H         1 <0>         0.1141
     26 C19        -1.2606   -6.5110  -11.4551 C.3       1 <0>         0.0362
     27 H3         -2.1690   -6.9419  -11.0341 H         1 <0>         0.1674
     28 N3         -0.8446   -5.3196  -10.6783 N.4       1 <0>        -0.5091
     29 C20        -0.1391   -7.5515  -11.4767 C.3       1 <0>         0.0606
     30 O4          1.0111   -6.9988  -12.1201 O.3       1 <0>        -0.5497
     31 O5         -0.3098   -5.8366  -13.6164 O.3       1 <0>        -0.5125
     32 O6         -1.9491   -3.6956  -13.6798 O.3       1 <0>        -0.5367
     33 H4          1.0039    1.9031    0.0027 H         1 <0>         0.0611
     34 H5         -0.5459    1.8868   -0.8726 H         1 <0>         0.0613
     35 H6         -0.5289    1.8773    0.9072 H         1 <0>         0.0740
     36 H7          0.5293   -0.3651    0.8851 H         1 <0>         0.0868
     37 H8         -1.0205   -0.3814    0.0098 H         1 <0>         0.0851
     38 H9          2.5453   -0.5232   -2.1762 H         1 <0>         0.0840
     39 H10         2.5986   -0.0180   -0.4703 H         1 <0>         0.0875
     40 H11         1.9579   -2.8280   -1.4752 H         1 <0>         0.0596
     41 H12         3.4982   -2.3119   -0.7477 H         1 <0>         0.0733
     42 H13         2.0113   -2.3228    0.2307 H         1 <0>         0.0616
     43 H14        -1.9099   -0.1283   -1.4946 H         1 <0>         0.1435
     44 H15        -3.2025   -0.5479   -3.5195 H         1 <0>         0.1476
     45 H16        -3.2821   -1.2080   -5.9129 H         1 <0>         0.1637
     46 H17         1.6878   -1.3201   -3.4894 H         1 <0>         0.1486
     47 H18        -0.7257   -3.3543   -9.0162 H         1 <0>         0.4056
     48 H19        -3.2093   -4.0348  -10.1760 H         1 <0>         0.0975
     49 H20        -2.6888   -2.4690  -10.8435 H         1 <0>         0.1195
     50 H21        -3.2266   -4.6939  -12.3737 H         1 <0>         0.1098
     51 H22         0.1625   -5.2615  -10.6549 H         1 <0>         0.4433
     52 H23         0.1160   -7.8321  -10.4548 H         1 <0>         0.0718
     53 H24        -0.4724   -8.4336  -12.0233 H         1 <0>         0.0936
     54 H25         1.7631   -7.6047  -12.1698 H         1 <0>         0.4000
     55 H26        -0.4164   -5.4168  -14.4810 H         1 <0>         0.3927
     56 H27        -2.4096   -3.9475  -14.4920 H         1 <0>         0.4047
     57 H28        -1.2017   -5.3853   -9.7369 H         1 <0>         0.4300
@<TRIPOS>BOND
     1    1    2 1
     2    1   33 1
     3    1   34 1
     4    1   35 1
     5    2    3 1
     6    2   36 1
     7    2   37 1
     8    3    4 1
     9    3    6 1
    10    4    5 1
    11    4   38 1
    12    4   39 1
    13    5   40 1
    14    5   41 1
    15    5   42 1
    16    6   16 ar
    17    6    7 ar
    18    7    8 ar
    19    7   43 1
    20    8    9 ar
    21    8   44 1
    22    9   15 ar
    23    9   10 1
    24   10   11 2
    25   10   45 1
    26   11   12 1
    27   11   17 1
    28   12   13 2
    29   12   14 1
    30   14   15 1
    31   15   16 ar
    32   16   46 1
    33   17   18 2
    34   17   19 am
    35   19   20 1
    36   19   47 1
    37   20   21 1
    38   20   48 1
    39   20   49 1
    40   21   22 1
    41   21   28 1
    42   21   23 1
    43   23   24 1
    44   23   32 1
    45   23   50 1
    46   24   25 1
    47   24   26 1
    48   24   31 1
    49   26   27 1
    50   26   28 1
    51   26   29 1
    52   28   51 1
    53   28   57 1
    54   29   30 1
    55   29   52 1
    56   29   53 1
    57   30   54 1
    58   31   55 1
    59   32   56 1
@<TRIPOS>MOLECULE
CHEMBL10131__1
   56    58     0     0     0
SMALL
USER_CHARGES

@<TRIPOS>ATOM
      1 C1         -0.0187    1.5258    0.0104 C.3       1 <0>        -0.1748
      2 C2          0.0021   -0.0041    0.0020 C.3       1 <0>         0.1097
      3 N1         -1.3723   -0.5112    0.0124 N.pl3     1 <0>        -0.6059
      4 C3         -2.0716   -0.7579   -1.2510 C.3       1 <0>         0.1073
      5 C4         -1.8159   -2.1971   -1.7029 C.3       1 <0>        -0.1748
      6 C5         -2.0124   -0.7580    1.2203 C.ar      1 <0>         0.2890
      7 C6         -1.3432   -0.5156    2.4226 C.ar      1 <0>        -0.2189
      8 C7         -1.9530   -0.7647    3.6145 C.ar      1 <0>         0.0114
      9 C8         -3.2603   -1.2779    3.6390 C.ar      1 <0>        -0.2347
     10 C9         -3.8915   -1.5745    4.8697 C.2       1 <0>         0.0987
     11 C10        -5.0995   -2.2635    4.8380 C.2       1 <0>        -0.3064
     12 C11        -5.6164   -2.6626    3.5176 C.2       1 <0>         0.5270
     13 O1         -6.3632   -3.6156    3.3956 O.2       1 <0>        -0.4394
     14 O2         -5.2322   -1.9323    2.4448 O.3       1 <0>        -0.2749
     15 C12        -3.9500   -1.4945    2.4281 C.ar      1 <0>         0.2100
     16 C13        -3.3151   -1.2386    1.2248 C.ar      1 <0>        -0.2326
     17 C14        -5.8316   -2.5815    6.0741 C.2       1 <0>         0.5823
     18 O3         -5.3823   -2.2406    7.1518 O.2       1 <0>        -0.5479
     19 N2         -7.0000   -3.2504    6.0121 N.am      1 <0>        -0.7082
     20 C15        -7.7289   -3.5669    7.2429 C.3       1 <0>         0.1396
     21 C16        -9.0123   -4.3239    6.8952 C.3       1 <0>         0.0728
     22 H1         -9.6757   -3.6820    6.3156 H         1 <0>         0.0833
     23 C17        -9.7202   -4.7789    8.1887 C.3       1 <0>         0.0628
     24 C18       -10.2617   -6.1839    7.8150 C.3       1 <0>         0.0432
     25 H2        -10.3704   -6.8089    8.7014 H         1 <0>         0.0775
     26 C19        -9.1365   -6.7181    6.8940 C.3       1 <0>         0.0908
     27 H3         -8.3165   -7.1189    7.4900 H         1 <0>         0.1097
     28 N3         -8.6858   -5.5362    6.1222 N.3       1 <0>        -0.6546
     29 C20        -9.6839   -7.7926    5.9524 C.3       1 <0>         0.0807
     30 O4         -8.6103   -8.3534    5.1942 O.3       1 <0>        -0.5654
     31 O5        -11.4992   -6.0841    7.1074 O.3       1 <0>        -0.5480
     32 O6        -10.7938   -3.8942    8.5152 O.3       1 <0>        -0.5509
     33 H4          1.0039    1.9031    0.0027 H         1 <0>         0.0698
     34 H5         -0.5459    1.8868   -0.8726 H         1 <0>         0.0589
     35 H6         -0.5289    1.8773    0.9072 H         1 <0>         0.0613
     36 H7          0.5123   -0.3556   -0.8948 H         1 <0>         0.0819
     37 H8          0.5293   -0.3651    0.8851 H         1 <0>         0.0827
     38 H9         -3.1417   -0.6062   -1.1097 H         1 <0>         0.0827
     39 H10        -1.7041   -0.0678   -2.0105 H         1 <0>         0.0822
     40 H11        -2.1835   -2.8871   -0.9434 H         1 <0>         0.0612
     41 H12        -2.3362   -2.3807   -2.6429 H         1 <0>         0.0701
     42 H13        -0.7458   -2.3488   -1.8443 H         1 <0>         0.0590
     43 H14        -0.3352   -0.1284    2.4065 H         1 <0>         0.1383
     44 H15        -1.4319   -0.5682    4.5399 H         1 <0>         0.1437
     45 H16        -3.4478   -1.2747    5.8077 H         1 <0>         0.1605
     46 H17        -3.8303   -1.4158    0.2923 H         1 <0>         0.1451
     47 H18        -7.3583   -3.5222    5.1527 H         1 <0>         0.4117
     48 H19        -7.1042   -4.1870    7.8858 H         1 <0>         0.0711
     49 H20        -7.9816   -2.6432    7.7633 H         1 <0>         0.0725
     50 H21        -9.0105   -4.8462    9.0132 H         1 <0>         0.0843
     51 H22        -9.1174   -5.5109    5.2105 H         1 <0>         0.3513
     52 H23       -10.1647   -8.5771    6.5368 H         1 <0>         0.0523
     53 H24       -10.4121   -7.3458    5.2756 H         1 <0>         0.0560
     54 H25        -8.8848   -9.0432    4.5746 H         1 <0>         0.3803
     55 H26       -12.2089   -5.6655    7.6135 H         1 <0>         0.3828
     56 H27       -11.2716   -4.1359    9.3204 H         1 <0>         0.3818
@<TRIPOS>BOND
     1    1    2 1
     2    1   33 1
     3    1   34 1
     4    1   35 1
     5    2    3 1
     6    2   36 1
     7    2   37 1
     8    3    4 1
     9    3    6 1
    10    4    5 1
    11    4   38 1
    12    4   39 1
    13    5   40 1
    14    5   41 1
    15    5   42 1
    16    6   16 ar
    17    6    7 ar
    18    7    8 ar
    19    7   43 1
    20    8    9 ar
    21    8   44 1
    22    9   15 ar
    23    9   10 1
    24   10   11 2
    25   10   45 1
    26   11   12 1
    27   11   17 1
    28   12   13 2
    29   12   14 1
    30   14   15 1
    31   15   16 ar
    32   16   46 1
    33   17   18 2
    34   17   19 am
    35   19   20 1
    36   19   47 1
    37   20   21 1
    38   20   48 1
    39   20   49 1
    40   21   22 1
    41   21   28 1
    42   21   23 1
    43   23   24 1
    44   23   32 1
    45   23   50 1
    46   24   25 1
    47   24   26 1
    48   24   31 1
    49   26   27 1
    50   26   28 1
    51   26   29 1
    52   28   51 1
    53   29   30 1
    54   29   52 1
    55   29   53 1
    56   30   54 1
    57   31   55 1
    58   32   56 1
@<TRIPOS>MOLECULE
CHEMBL10131__2
   57    59     0     0     0
SMALL
USER_CHARGES

@<TRIPOS>ATOM
      1 C1         -0.0187    1.5258    0.0104 C.3       1 <0>        -0.1755
      2 C2          0.0021   -0.0041    0.0020 C.3       1 <0>         0.1052
      3 N1          0.6878   -0.4765   -1.2033 N.pl3     1 <0>        -0.5968
      4 C3          2.1353   -0.7012   -1.1821 C.3       1 <0>         0.1033
      5 C4          2.4212   -2.1448   -0.7635 C.3       1 <0>        -0.1747
      6 C5         -0.0345   -0.7115   -2.3663 C.ar      1 <0>         0.3021
      7 C6         -1.4140   -0.4902   -2.3832 C.ar      1 <0>        -0.2169
      8 C7         -2.1377   -0.7280   -3.5120 C.ar      1 <0>         0.0191
      9 C8         -1.4976   -1.2083   -4.6664 C.ar      1 <0>        -0.2492
     10 C9         -2.2434   -1.4932   -5.8341 C.2       1 <0>         0.1319
     11 C10        -1.6015   -2.1516   -6.8780 C.2       1 <0>        -0.3458
     12 C11        -0.1935   -2.5330   -6.6733 C.2       1 <0>         0.5419
     13 O1          0.3002   -3.4665   -7.2780 O.2       1 <0>        -0.4761
     14 O2          0.5322   -1.8089   -5.7898 O.3       1 <0>        -0.2695
     15 C12        -0.1008   -1.4033   -4.6625 C.ar      1 <0>         0.2149
     16 C13         0.6200   -1.1592   -3.5061 C.ar      1 <0>        -0.2351
     17 C14        -2.3012   -2.4554   -8.1362 C.2       1 <0>         0.5975
     18 O3         -3.4644   -2.1297   -8.2791 O.2       1 <0>        -0.5202
     19 N2         -1.6533   -3.0946   -9.1302 N.am      1 <0>        -0.7541
     20 C15        -2.3500   -3.3970  -10.3830 C.3       1 <0>         0.1070
     21 C16        -1.3957   -4.1203  -11.3354 C.3       1 <0>         0.0305
     22 H1         -0.5856   -3.4518  -11.6268 H         1 <0>         0.1587
     23 C17        -2.1627   -4.5929  -12.5884 C.3       1 <0>         0.0666
     24 C18        -1.5290   -5.9776  -12.8845 C.3       1 <0>         0.0650
     25 H2         -2.2292   -6.6217  -13.4165 H         1 <0>         0.1138
     26 C19        -1.2606   -6.5110  -11.4551 C.3       1 <0>         0.0417
     27 H3         -2.1690   -6.9419  -11.0341 H         1 <0>         0.1665
     28 N3         -0.8446   -5.3196  -10.6783 N.4       1 <0>        -0.5118
     29 C20        -0.1391   -7.5515  -11.4767 C.3       1 <0>         0.0598
     30 O4          1.0111   -6.9988  -12.1201 O.3       1 <0>        -0.5510
     31 O5         -0.3098   -5.8366  -13.6164 O.3       1 <0>        -0.5173
     32 O6         -3.5575   -4.7253  -12.3069 O.3       1 <0>        -0.5452
     33 H4          1.0039    1.9031    0.0027 H         1 <0>         0.0610
     34 H5         -0.5459    1.8868   -0.8726 H         1 <0>         0.0612
     35 H6         -0.5289    1.8773    0.9072 H         1 <0>         0.0739
     36 H7          0.5293   -0.3651    0.8851 H         1 <0>         0.0867
     37 H8         -1.0205   -0.3814    0.0098 H         1 <0>         0.0851
     38 H9          2.5453   -0.5232   -2.1762 H         1 <0>         0.0839
     39 H10         2.5986   -0.0180   -0.4703 H         1 <0>         0.0873
     40 H11         1.9579   -2.8280   -1.4752 H         1 <0>         0.0596
     41 H12         3.4982   -2.3119   -0.7477 H         1 <0>         0.0732
     42 H13         2.0113   -2.3228    0.2307 H         1 <0>         0.0616
     43 H14        -1.9099   -0.1283   -1.4946 H         1 <0>         0.1434
     44 H15        -3.2025   -0.5479   -3.5195 H         1 <0>         0.1475
     45 H16        -3.2821   -1.2080   -5.9129 H         1 <0>         0.1636
     46 H17         1.6878   -1.3201   -3.4894 H         1 <0>         0.1484
     47 H18        -0.7257   -3.3543   -9.0162 H         1 <0>         0.4034
     48 H19        -3.2093   -4.0348  -10.1760 H         1 <0>         0.1093
     49 H20        -2.6888   -2.4690  -10.8435 H         1 <0>         0.1146
     50 H21        -1.9998   -3.9085  -13.4209 H         1 <0>         0.1166
     51 H22         0.1625   -5.2615  -10.6549 H         1 <0>         0.4405
     52 H23         0.1160   -7.8321  -10.4548 H         1 <0>         0.0712
     53 H24        -0.4724   -8.4336  -12.0233 H         1 <0>         0.0929
     54 H25         1.7631   -7.6047  -12.1698 H         1 <0>         0.4000
     55 H26        -0.4164   -5.4168  -14.4810 H         1 <0>         0.3932
     56 H27        -4.0848   -5.0200  -13.0619 H         1 <0>         0.4060
     57 H28        -1.2017   -5.3853   -9.7369 H         1 <0>         0.4298
@<TRIPOS>BOND
     1    1    2 1
     2    1   33 1
     3    1   34 1
     4    1   35 1
     5    2    3 1
     6    2   36 1
     7    2   37 1
     8    3    4 1
     9    3    6 1
    10    4    5 1
    11    4   38 1
    12    4   39 1
    13    5   40 1
    14    5   41 1
    15    5   42 1
    16    6   16 ar
    17    6    7 ar
    18    7    8 ar
    19    7   43 1
    20    8    9 ar
    21    8   44 1
    22    9   15 ar
    23    9   10 1
    24   10   11 2
    25   10   45 1
    26   11   12 1
    27   11   17 1
    28   12   13 2
    29   12   14 1
    30   14   15 1
    31   15   16 ar
    32   16   46 1
    33   17   18 2
    34   17   19 am
    35   19   20 1
    36   19   47 1
    37   20   21 1
    38   20   48 1
    39   20   49 1
    40   21   22 1
    41   21   28 1
    42   21   23 1
    43   23   24 1
    44   23   32 1
    45   23   50 1
    46   24   25 1
    47   24   26 1
    48   24   31 1
    49   26   27 1
    50   26   28 1
    51   26   29 1
    52   28   51 1
    53   28   57 1
    54   29   30 1
    55   29   52 1
    56   29   53 1
    57   30   54 1
    58   31   55 1
    59   32   56 1
@<TRIPOS>MOLECULE
CHEMBL10131__3
   56    58     0     0     0
SMALL
USER_CHARGES

@<TRIPOS>ATOM
      1 C1         -0.0187    1.5258    0.0104 C.3       1 <0>        -0.1747
      2 C2          0.0021   -0.0041    0.0020 C.3       1 <0>         0.1098
      3 N1         -1.3723   -0.5112    0.0124 N.pl3     1 <0>        -0.6062
      4 C3         -2.0716   -0.7579   -1.2510 C.3       1 <0>         0.1076
      5 C4         -1.8159   -2.1971   -1.7029 C.3       1 <0>        -0.1748
      6 C5         -2.0124   -0.7580    1.2203 C.ar      1 <0>         0.2884
      7 C6         -1.3432   -0.5156    2.4226 C.ar      1 <0>        -0.2188
      8 C7         -1.9530   -0.7647    3.6145 C.ar      1 <0>         0.0110
      9 C8         -3.2603   -1.2779    3.6390 C.ar      1 <0>        -0.2337
     10 C9         -3.8915   -1.5745    4.8697 C.2       1 <0>         0.0968
     11 C10        -5.0995   -2.2635    4.8380 C.2       1 <0>        -0.3048
     12 C11        -5.6164   -2.6626    3.5176 C.2       1 <0>         0.5267
     13 O1         -6.3632   -3.6156    3.3956 O.2       1 <0>        -0.4395
     14 O2         -5.2322   -1.9323    2.4448 O.3       1 <0>        -0.2754
     15 C12        -3.9500   -1.4945    2.4281 C.ar      1 <0>         0.2093
     16 C13        -3.3151   -1.2386    1.2248 C.ar      1 <0>        -0.2324
     17 C14        -5.8316   -2.5815    6.0741 C.2       1 <0>         0.5807
     18 O3         -5.3823   -2.2406    7.1518 O.2       1 <0>        -0.5467
     19 N2         -7.0000   -3.2504    6.0121 N.am      1 <0>        -0.7103
     20 C15        -7.7289   -3.5669    7.2429 C.3       1 <0>         0.1451
     21 C16        -9.0123   -4.3239    6.8952 C.3       1 <0>         0.0747
     22 H1         -9.6757   -3.6820    6.3156 H         1 <0>         0.0791
     23 C17        -9.7202   -4.7789    8.1887 C.3       1 <0>         0.0658
     24 C18       -10.2617   -6.1839    7.8150 C.3       1 <0>         0.0430
     25 H2        -10.3704   -6.8089    8.7014 H         1 <0>         0.0785
     26 C19        -9.1365   -6.7181    6.8940 C.3       1 <0>         0.0980
     27 H3         -8.3165   -7.1189    7.4900 H         1 <0>         0.1101
     28 N3         -8.6858   -5.5362    6.1222 N.3       1 <0>        -0.6569
     29 C20        -9.6839   -7.7926    5.9524 C.3       1 <0>         0.0790
     30 O4         -8.6103   -8.3534    5.1942 O.3       1 <0>        -0.5648
     31 O5        -11.4992   -6.0841    7.1074 O.3       1 <0>        -0.5529
     32 O6         -8.7897   -4.8671    9.2697 O.3       1 <0>        -0.5414
     33 H4          1.0039    1.9031    0.0027 H         1 <0>         0.0697
     34 H5         -0.5459    1.8868   -0.8726 H         1 <0>         0.0588
     35 H6         -0.5289    1.8773    0.9072 H         1 <0>         0.0613
     36 H7          0.5123   -0.3556   -0.8948 H         1 <0>         0.0817
     37 H8          0.5293   -0.3651    0.8851 H         1 <0>         0.0827
     38 H9         -3.1417   -0.6062   -1.1097 H         1 <0>         0.0825
     39 H10        -1.7041   -0.0678   -2.0105 H         1 <0>         0.0820
     40 H11        -2.1835   -2.8871   -0.9434 H         1 <0>         0.0612
     41 H12        -2.3362   -2.3807   -2.6429 H         1 <0>         0.0700
     42 H13        -0.7458   -2.3488   -1.8443 H         1 <0>         0.0589
     43 H14        -0.3352   -0.1284    2.4065 H         1 <0>         0.1381
     44 H15        -1.4319   -0.5682    4.5399 H         1 <0>         0.1436
     45 H16        -3.4478   -1.2747    5.8077 H         1 <0>         0.1604
     46 H17        -3.8303   -1.4158    0.2923 H         1 <0>         0.1449
     47 H18        -7.3583   -3.5222    5.1527 H         1 <0>         0.4095
     48 H19        -7.1042   -4.1870    7.8858 H         1 <0>         0.0845
     49 H20        -7.9816   -2.6432    7.7633 H         1 <0>         0.0668
     50 H21       -10.5391   -4.1040    8.4377 H         1 <0>         0.0762
     51 H22        -9.1174   -5.5109    5.2105 H         1 <0>         0.3477
     52 H23       -10.1647   -8.5771    6.5368 H         1 <0>         0.0511
     53 H24       -10.4121   -7.3458    5.2756 H         1 <0>         0.0547
     54 H25        -8.8848   -9.0432    4.5746 H         1 <0>         0.3794
     55 H26       -12.2089   -5.6655    7.6135 H         1 <0>         0.3827
     56 H27        -9.1843   -5.1493   10.1062 H         1 <0>         0.3810
@<TRIPOS>BOND
     1    1    2 1
     2    1   33 1
     3    1   34 1
     4    1   35 1
     5    2    3 1
     6    2   36 1
     7    2   37 1
     8    3    4 1
     9    3    6 1
    10    4    5 1
    11    4   38 1
    12    4   39 1
    13    5   40 1
    14    5   41 1
    15    5   42 1
    16    6   16 ar
    17    6    7 ar
    18    7    8 ar
    19    7   43 1
    20    8    9 ar
    21    8   44 1
    22    9   15 ar
    23    9   10 1
    24   10   11 2
    25   10   45 1
    26   11   12 1
    27   11   17 1
    28   12   13 2
    29   12   14 1
    30   14   15 1
    31   15   16 ar
    32   16   46 1
    33   17   18 2
    34   17   19 am
    35   19   20 1
    36   19   47 1
    37   20   21 1
    38   20   48 1
    39   20   49 1
    40   21   22 1
    41   21   28 1
    42   21   23 1
    43   23   24 1
    44   23   32 1
    45   23   50 1
    46   24   25 1
    47   24   26 1
    48   24   31 1
    49   26   27 1
    50   26   28 1
    51   26   29 1
    52   28   51 1
    53   29   30 1
    54   29   52 1
    55   29   53 1
    56   30   54 1
    57   31   55 1
    58   32   56 1
@<TRIPOS>MOLECULE
CHEMBL115510
   45    45     0     0     0
SMALL
USER_CHARGES

@<TRIPOS>ATOM
      1 C1         -0.0187    1.5258    0.0104 C.3       1 <0>        -0.1576
      2 C2          0.0021   -0.0041    0.0020 C.3       1 <0>        -0.1266
      3 C3          0.7421   -0.5109    1.2415 C.3       1 <0>        -0.1220
      4 C4          0.7628   -2.0407    1.2331 C.3       1 <0>        -0.1184
      5 C5          1.5028   -2.5476    2.4727 C.3       1 <0>        -0.1480
      6 C6          1.5236   -4.0774    2.4642 C.3       1 <0>        -0.0151
      7 N1          2.2340   -4.5640    3.6544 N.4       1 <0>        -0.5027
      8 C7          2.2540   -6.0329    3.6463 C.3       1 <0>         0.0360
      9 C8          3.0994   -6.5379    4.8172 C.3       1 <0>        -0.1371
     10 C9          3.1202   -8.0677    4.8088 C.3       1 <0>        -0.0757
     11 C10         1.6915   -8.5979    4.9453 C.3       1 <0>         0.0770
     12 C11         0.8460   -8.0929    3.7744 C.3       1 <0>         0.0441
     13 C12         0.8253   -6.5631    3.7828 C.3       1 <0>         0.0992
     14 O1          0.2612   -6.1011    5.0118 O.3       1 <0>        -0.5642
     15 O2         -0.4884   -8.5881    3.9019 O.3       1 <0>        -0.5593
     16 O3          1.7109  -10.0268    4.9374 O.3       1 <0>        -0.5524
     17 C13         3.9656   -8.5728    5.9797 C.3       1 <0>        -0.1478
     18 H1          1.0039    1.9031    0.0027 H         1 <0>         0.0554
     19 H2         -0.5459    1.8868   -0.8726 H         1 <0>         0.0590
     20 H3         -0.5289    1.8773    0.9072 H         1 <0>         0.0554
     21 H4         -1.0205   -0.3814    0.0098 H         1 <0>         0.0632
     22 H5          0.5123   -0.3556   -0.8948 H         1 <0>         0.0633
     23 H6          1.7647   -0.1336    1.2338 H         1 <0>         0.0663
     24 H7          0.2319   -0.1594    2.1383 H         1 <0>         0.0663
     25 H8         -0.2598   -2.4180    1.2409 H         1 <0>         0.0735
     26 H9          1.2730   -2.3923    0.3363 H         1 <0>         0.0739
     27 H10         2.5254   -2.1703    2.4649 H         1 <0>         0.0881
     28 H11         0.9926   -2.1961    3.3695 H         1 <0>         0.0883
     29 H12         0.5010   -4.4547    2.4720 H         1 <0>         0.1306
     30 H13         2.0337   -4.4289    1.5675 H         1 <0>         0.1325
     31 H14         3.1806   -4.2148    3.6472 H         1 <0>         0.4305
     32 H15         2.6843   -6.3853    2.7088 H         1 <0>         0.1526
     33 H16         4.1173   -6.1602    4.7199 H         1 <0>         0.0996
     34 H17         2.6692   -6.1855    5.7546 H         1 <0>         0.1025
     35 H18         3.5505   -8.4201    3.8713 H         1 <0>         0.0891
     36 H19         1.2612   -8.2455    5.8827 H         1 <0>         0.0790
     37 H20         1.2763   -8.4453    2.8369 H         1 <0>         0.0818
     38 H21         0.2229   -6.2033    2.9486 H         1 <0>         0.0900
     39 H22        -0.6457   -6.3996    5.1650 H         1 <0>         0.4138
     40 H23        -0.5513   -9.5530    3.9040 H         1 <0>         0.3969
     41 H24         0.8370  -10.4324    5.0206 H         1 <0>         0.3835
     42 H25         3.5354   -8.2204    6.9171 H         1 <0>         0.0603
     43 H26         3.9804   -9.6627    5.9737 H         1 <0>         0.0764
     44 H27         4.9835   -8.1951    5.8824 H         1 <0>         0.0634
     45 H28         1.7618   -4.2386    4.4845 H         1 <0>         0.4354
@<TRIPOS>BOND
     1    1    2 1
     2    1   18 1
     3    1   19 1
     4    1   20 1
     5    2    3 1
     6    2   21 1
     7    2   22 1
     8    3    4 1
     9    3   23 1
    10    3   24 1
    11    4    5 1
    12    4   25 1
    13    4   26 1
    14    5    6 1
    15    5   27 1
    16    5   28 1
    17    6    7 1
    18    6   29 1
    19    6   30 1
    20    7    8 1
    21    7   31 1
    22    7   45 1
    23    8   13 1
    24    8    9 1
    25    8   32 1
    26    9   10 1
    27    9   33 1
    28    9   34 1
    29   10   11 1
    30   10   17 1
    31   10   35 1
    32   11   12 1
    33   11   16 1
    34   11   36 1
    35   12   13 1
    36   12   15 1
    37   12   37 1
    38   13   14 1
    39   13   38 1
    40   14   39 1
    41   15   40 1
    42   16   41 1
    43   17   42 1
    44   17   43 1
    45   17   44 1
@<TRIPOS>MOLECULE
CHEMBL259330
   66    70     0     0     0
SMALL
USER_CHARGES

@<TRIPOS>ATOM
      1 C1         -0.2834    1.8765    0.0724 C.3       1 <0>        -0.1438
      2 C2         -0.3444    0.3769   -0.0640 C.ar      1 <0>         0.0969
      3 C3         -0.4588   -0.2091   -1.2887 C.ar      1 <0>        -0.2253
      4 C4         -0.5134   -1.6062   -1.3917 C.ar      1 <0>         0.4976
      5 N1         -0.4570   -2.3785   -0.3265 N.ar      1 <0>        -0.5270
      6 C5         -0.3446   -1.8604    0.9023 C.ar      1 <0>         0.1479
      7 C6         -0.2787   -0.4557    1.0720 C.ar      1 <0>        -0.0910
      8 C7         -0.1558    0.0832    2.3615 C.ar      1 <0>        -0.0955
      9 C8         -0.0951   -0.7628    3.4472 C.ar      1 <0>         0.1672
     10 C9         -0.1551   -2.1495    3.2724 C.ar      1 <0>        -0.0406
     11 C10        -0.2857   -2.6936    2.0330 C.ar      1 <0>        -0.1242
     12 N2          0.0280   -0.2303    4.7359 N.am      1 <0>        -0.6785
     13 C11         0.7499   -0.8827    5.6685 C.2       1 <0>         0.5230
     14 O1          1.3748   -1.8771    5.3655 O.2       1 <0>        -0.5086
     15 C12         0.7808   -0.3766    7.0876 C.3       1 <0>        -0.1044
     16 C13         1.3463    1.0448    7.1100 C.3       1 <0>        -0.1119
     17 C14         1.3776    1.5586    8.5508 C.3       1 <0>        -0.1143
     18 C15         2.2632    0.6439    9.3993 C.3       1 <0>        -0.0956
     19 C16         1.6977   -0.7775    9.3769 C.3       1 <0>        -0.1166
     20 C17         1.6664   -1.2913    7.9361 C.3       1 <0>        -0.1011
     21 C18         2.2945    1.1577   10.8402 C.3       1 <0>        -0.1508
     22 N3         -0.6299   -2.1890   -2.6456 N.pl3     1 <0>        -0.5786
     23 C19        -0.5709   -3.6493   -2.8002 C.3       1 <0>         0.0802
     24 C20        -1.8360   -4.1164   -3.5306 C.3       1 <0>         0.1155
     25 N4         -2.0212   -3.2844   -4.7278 N.pl3     1 <0>        -0.5937
     26 C21        -2.0803   -1.8241   -4.5733 C.3       1 <0>         0.1128
     27 C22        -0.8208   -1.3573   -3.8422 C.3       1 <0>         0.0916
     28 C23        -2.1375   -3.8657   -5.9785 C.ar      1 <0>         0.5588
     29 N5         -2.0854   -5.1852   -6.0858 N.ar      1 <0>        -0.5703
     30 C24        -2.1937   -5.7725   -7.2661 C.ar      1 <0>         0.1952
     31 C25        -2.3633   -4.9901   -8.3975 C.ar      1 <0>        -0.2765
     32 C26        -2.4135   -3.6129   -8.2494 C.ar      1 <0>         0.1958
     33 N6         -2.3037   -3.0896   -7.0395 N.ar      1 <0>        -0.5682
     34 H1          0.7550    2.2040    0.0212 H         1 <0>         0.1085
     35 H2         -0.8503    2.3383   -0.7359 H         1 <0>         0.0977
     36 H3         -0.7106    2.1719    1.0307 H         1 <0>         0.0937
     37 H4         -0.5078    0.4014   -2.1783 H         1 <0>         0.1798
     38 H5         -0.1087    1.1530    2.5019 H         1 <0>         0.1582
     39 H6         -0.1057   -2.7971    4.1353 H         1 <0>         0.1599
     40 H7         -0.3312   -3.7663    1.9162 H         1 <0>         0.1546
     41 H8         -0.4063    0.6082    4.9578 H         1 <0>         0.4204
     42 H9         -0.2308   -0.3716    7.4937 H         1 <0>         0.1072
     43 H10         2.3579    1.0398    6.7040 H         1 <0>         0.0714
     44 H11         0.7154    1.6965    6.5056 H         1 <0>         0.0660
     45 H12         1.7805    2.5713    8.5668 H         1 <0>         0.0706
     46 H13         0.3661    1.5636    8.9569 H         1 <0>         0.0677
     47 H14         3.2748    0.6389    8.9933 H         1 <0>         0.0716
     48 H15         2.3286   -1.4292    9.9814 H         1 <0>         0.0708
     49 H16         0.6861   -0.7725    9.7830 H         1 <0>         0.0655
     50 H17         1.2635   -2.3040    7.9202 H         1 <0>         0.0718
     51 H18         2.6779   -1.2963    7.5301 H         1 <0>         0.0722
     52 H19         1.2830    1.1627   11.2462 H         1 <0>         0.0557
     53 H20         2.9255    0.5061   11.4446 H         1 <0>         0.0572
     54 H21         2.6975    2.1704   10.8561 H         1 <0>         0.0563
     55 H22         0.3093   -3.9202   -3.3833 H         1 <0>         0.1082
     56 H23        -0.5209   -4.1194   -1.8180 H         1 <0>         0.0907
     57 H24        -1.7246   -5.1602   -3.8242 H         1 <0>         0.1269
     58 H25        -2.6988   -4.0087   -2.8733 H         1 <0>         0.0771
     59 H26        -2.1302   -1.3540   -5.5555 H         1 <0>         0.1279
     60 H27        -2.9605   -1.5532   -3.9902 H         1 <0>         0.0780
     61 H28        -0.9358   -0.3141   -3.5480 H         1 <0>         0.1155
     62 H29         0.0412   -1.4612   -4.5012 H         1 <0>         0.1019
     63 H30        -2.1501   -6.8486   -7.3472 H         1 <0>         0.1729
     64 H31        -2.4541   -5.4437   -9.3734 H         1 <0>         0.1512
     65 H32        -2.5444   -2.9749   -9.1109 H         1 <0>         0.1734
     66 H33        -0.4981   -3.3416   -0.4346 H         1 <0>         0.4331
@<TRIPOS>BOND
     1    1    2 1
     2    1   34 1
     3    1   35 1
     4    1   36 1
     5    2    7 ar
     6    2    3 ar
     7    3    4 ar
     8    3   37 1
     9    4    5 ar
    10    4   22 1
    11    5    6 ar
    12    5   66 1
    13    6   11 ar
    14    6    7 ar
    15    7    8 ar
    16    8    9 ar
    17    8   38 1
    18    9   10 ar
    19    9   12 1
    20   10   11 ar
    21   10   39 1
    22   11   40 1
    23   12   13 am
    24   12   41 1
    25   13   14 2
    26   13   15 1
    27   15   20 1
    28   15   16 1
    29   15   42 1
    30   16   17 1
    31   16   43 1
    32   16   44 1
    33   17   18 1
    34   17   45 1
    35   17   46 1
    36   18   19 1
    37   18   21 1
    38   18   47 1
    39   19   20 1
    40   19   48 1
    41   19   49 1
    42   20   50 1
    43   20   51 1
    44   21   52 1
    45   21   53 1
    46   21   54 1
    47   22   27 1
    48   22   23 1
    49   23   24 1
    50   23   55 1
    51   23   56 1
    52   24   25 1
    53   24   57 1
    54   24   58 1
    55   25   26 1
    56   25   28 1
    57   26   27 1
    58   26   59 1
    59   26   60 1
    60   27   61 1
    61   27   62 1
    62   28   33 ar
    63   28   29 ar
    64   29   30 ar
    65   30   31 ar
    66   30   63 1
    67   31   32 ar
    68   31   64 1
    69   32   33 ar
    70   32   65 1
@<TRIPOS>MOLECULE
CHEMBL274669
   44    45     0     0     0
SMALL
USER_CHARGES

@<TRIPOS>ATOM
      1 C1         -0.0167    1.3781    0.0096 C.ar      1 <0>        -0.1185
      2 C2          1.1709    2.0855    0.0021 C.ar      1 <0>        -0.1168
      3 C3          2.3773    1.4107   -0.0130 C.ar      1 <0>        -0.1170
      4 C4          2.3960    0.0285   -0.0201 C.ar      1 <0>        -0.0924
      5 C5          1.2084   -0.6789   -0.0117 C.ar      1 <0>        -0.1162
      6 C6          0.0021   -0.0041    0.0020 C.ar      1 <0>        -0.1162
      7 C7          3.7112   -0.7071   -0.0376 C.3       1 <0>        -0.0659
      8 C8          4.1714   -0.9633    1.3989 C.3       1 <0>        -0.1338
      9 C9          5.4865   -1.6989    1.3815 C.2       1 <0>         0.5183
     10 O1          6.0047   -1.9897    0.3242 O.2       1 <0>        -0.5093
     11 N1          6.0868   -2.0337    2.5408 N.am      1 <0>        -0.7584
     12 C10         7.3653   -2.7489    2.5238 C.3       1 <0>         0.1081
     13 C11         7.8255   -3.0050    3.9603 C.3       1 <0>         0.0311
     14 H1          7.1404   -3.6885    4.4619 H         1 <0>         0.1622
     15 C12         9.2600   -3.5753    3.9725 C.3       1 <0>         0.0604
     16 C13         9.9363   -2.9327    5.2011 C.3       1 <0>         0.0589
     17 H2         10.2437   -3.7020    5.9096 H         1 <0>         0.1104
     18 C14         8.8535   -2.0283    5.8278 C.3       1 <0>         0.0416
     19 H3          8.3297   -2.5580    6.6236 H         1 <0>         0.1668
     20 N2          7.9220   -1.7257    4.7094 N.4       1 <0>        -0.5165
     21 C15         9.4802   -0.7412    6.3677 C.3       1 <0>         0.0649
     22 O2         10.2406   -0.1118    5.3344 O.3       1 <0>        -0.5493
     23 O3         11.0635   -2.1532    4.7962 O.3       1 <0>        -0.5083
     24 O4          9.9506   -3.2073    2.7768 O.3       1 <0>        -0.5367
     25 H4         -0.9591    1.9053    0.0259 H         1 <0>         0.1243
     26 H5          1.1563    3.1654    0.0076 H         1 <0>         0.1240
     27 H6          3.3051    1.9634   -0.0196 H         1 <0>         0.1207
     28 H7          1.2231   -1.7588   -0.0176 H         1 <0>         0.1214
     29 H8         -0.9258   -0.5567    0.0082 H         1 <0>         0.1244
     30 H9          3.5884   -1.6586   -0.5549 H         1 <0>         0.0824
     31 H10         4.4573   -0.1052   -0.5563 H         1 <0>         0.0819
     32 H11         4.2941   -0.0118    1.9163 H         1 <0>         0.0985
     33 H12         3.4252   -1.5652    1.9176 H         1 <0>         0.1005
     34 H13         5.6724   -1.8012    3.3864 H         1 <0>         0.3937
     35 H14         7.2425   -3.7004    2.0065 H         1 <0>         0.1132
     36 H15         8.1114   -2.1469    2.0051 H         1 <0>         0.1096
     37 H16         9.2354   -4.6599    4.0779 H         1 <0>         0.1159
     38 H17         8.3027   -1.0000    4.1208 H         1 <0>         0.4441
     39 H18         8.6926   -0.0659    6.7019 H         1 <0>         0.0683
     40 H19        10.1344   -0.9797    7.2064 H         1 <0>         0.0928
     41 H20        10.6675    0.7121    5.6065 H         1 <0>         0.3998
     42 H21        11.7569   -2.6636    4.3558 H         1 <0>         0.3874
     43 H22        10.8579   -3.5383    2.7289 H         1 <0>         0.4015
     44 H23         7.0170   -1.4557    5.0646 H         1 <0>         0.4285
@<TRIPOS>BOND
     1    1    6 ar
     2    1    2 ar
     3    1   25 1
     4    2    3 ar
     5    2   26 1
     6    3    4 ar
     7    3   27 1
     8    4    5 ar
     9    4    7 1
    10    5    6 ar
    11    5   28 1
    12    6   29 1
    13    7    8 1
    14    7   30 1
    15    7   31 1
    16    8    9 1
    17    8   32 1
    18    8   33 1
    19    9   10 2
    20    9   11 am
    21   11   12 1
    22   11   34 1
    23   12   13 1
    24   12   35 1
    25   12   36 1
    26   13   14 1
    27   13   20 1
    28   13   15 1
    29   15   16 1
    30   15   24 1
    31   15   37 1
    32   16   17 1
    33   16   18 1
    34   16   23 1
    35   18   19 1
    36   18   20 1
    37   18   21 1
    38   20   38 1
    39   20   44 1
    40   21   22 1
    41   21   39 1
    42   21   40 1
    43   22   41 1
    44   23   42 1
    45   24   43 1
@<TRIPOS>MOLECULE
CHEMBL274669__1
   43    44     0     0     0
SMALL
USER_CHARGES

@<TRIPOS>ATOM
      1 C1         -0.0167    1.3781    0.0096 C.ar      1 <0>        -0.1243
      2 C2          1.1709    2.0855    0.0021 C.ar      1 <0>        -0.1181
      3 C3          2.3773    1.4107   -0.0130 C.ar      1 <0>        -0.1166
      4 C4          2.3960    0.0285   -0.0201 C.ar      1 <0>        -0.0837
      5 C5          1.2084   -0.6789   -0.0117 C.ar      1 <0>        -0.1169
      6 C6          0.0021   -0.0041    0.0020 C.ar      1 <0>        -0.1183
      7 C7          3.7112   -0.7071   -0.0376 C.3       1 <0>        -0.0650
      8 C8          4.1714   -0.9633    1.3989 C.3       1 <0>        -0.1336
      9 C9          5.4865   -1.6989    1.3815 C.2       1 <0>         0.5116
     10 O1          6.0047   -1.9897    0.3242 O.2       1 <0>        -0.5414
     11 N1          6.0868   -2.0337    2.5408 N.am      1 <0>        -0.7275
     12 C10         7.3653   -2.7489    2.5238 C.3       1 <0>         0.1328
     13 C11         7.8255   -3.0050    3.9603 C.3       1 <0>         0.0636
     14 H1          7.1270   -3.6689    4.4697 H         1 <0>         0.1085
     15 C12         9.2466   -3.6080    3.9710 C.3       1 <0>         0.0431
     16 C13         9.9426   -2.9722    5.1920 C.3       1 <0>         0.0416
     17 H2         10.2352   -3.7431    5.9049 H         1 <0>         0.0750
     18 C14         8.8834   -2.0386    5.8164 C.3       1 <0>         0.0818
     19 H3          8.3510   -2.5503    6.6181 H         1 <0>         0.1095
     20 N2          7.9544   -1.7228    4.6995 N.3       1 <0>        -0.6420
     21 C15         9.5418   -0.7623    6.3442 C.3       1 <0>         0.0903
     22 O2          8.5655    0.0330    7.0198 O.3       1 <0>        -0.5677
     23 O3         11.0856   -2.2218    4.7768 O.3       1 <0>        -0.5457
     24 O4          9.9404   -3.2648    2.7698 O.3       1 <0>        -0.5418
     25 H4         -0.9591    1.9053    0.0259 H         1 <0>         0.1209
     26 H5          1.1563    3.1654    0.0076 H         1 <0>         0.1218
     27 H6          3.3051    1.9634   -0.0196 H         1 <0>         0.1217
     28 H7          1.2231   -1.7588   -0.0176 H         1 <0>         0.1214
     29 H8         -0.9258   -0.5567    0.0082 H         1 <0>         0.1216
     30 H9          3.5884   -1.6586   -0.5549 H         1 <0>         0.0799
     31 H10         4.4573   -0.1052   -0.5563 H         1 <0>         0.0801
     32 H11         4.2941   -0.0118    1.9163 H         1 <0>         0.0957
     33 H12         3.4252   -1.5652    1.9176 H         1 <0>         0.0946
     34 H13         5.6724   -1.8012    3.3864 H         1 <0>         0.4074
     35 H14         7.2425   -3.7004    2.0065 H         1 <0>         0.0729
     36 H15         8.1114   -2.1469    2.0051 H         1 <0>         0.0813
     37 H16         9.1975   -4.6909    4.0845 H         1 <0>         0.0758
     38 H17         8.3353   -1.0005    4.1068 H         1 <0>         0.3473
     39 H18        10.3397   -1.0255    7.0387 H         1 <0>         0.0530
     40 H19         9.9577   -0.1965    5.5106 H         1 <0>         0.0548
     41 H20         8.9133    0.8596    7.3813 H         1 <0>         0.3804
     42 H21        11.7653   -2.7511    4.3375 H         1 <0>         0.3774
     43 H22        10.8397   -3.6168    2.7207 H         1 <0>         0.3769
@<TRIPOS>BOND
     1    1    6 ar
     2    1    2 ar
     3    1   25 1
     4    2    3 ar
     5    2   26 1
     6    3    4 ar
     7    3   27 1
     8    4    5 ar
     9    4    7 1
    10    5    6 ar
    11    5   28 1
    12    6   29 1
    13    7    8 1
    14    7   30 1
    15    7   31 1
    16    8    9 1
    17    8   32 1
    18    8   33 1
    19    9   10 2
    20    9   11 am
    21   11   12 1
    22   11   34 1
    23   12   13 1
    24   12   35 1
    25   12   36 1
    26   13   14 1
    27   13   20 1
    28   13   15 1
    29   15   16 1
    30   15   24 1
    31   15   37 1
    32   16   17 1
    33   16   18 1
    34   16   23 1
    35   18   19 1
    36   18   20 1
    37   18   21 1
    38   20   38 1
    39   21   22 1
    40   21   39 1
    41   21   40 1
    42   22   41 1
    43   23   42 1
    44   24   43 1
@<TRIPOS>MOLECULE
CHEMBL274669__2
   44    45     0     0     0
SMALL
USER_CHARGES

@<TRIPOS>ATOM
      1 C1         -0.0167    1.3781    0.0096 C.ar      1 <0>        -0.1182
      2 C2          1.1709    2.0855    0.0021 C.ar      1 <0>        -0.1169
      3 C3          2.3773    1.4107   -0.0130 C.ar      1 <0>        -0.1169
      4 C4          2.3960    0.0285   -0.0201 C.ar      1 <0>        -0.0929
      5 C5          1.2084   -0.6789   -0.0117 C.ar      1 <0>        -0.1160
      6 C6          0.0021   -0.0041    0.0020 C.ar      1 <0>        -0.1161
      7 C7          3.7112   -0.7071   -0.0376 C.3       1 <0>        -0.0658
      8 C8          4.1714   -0.9633    1.3989 C.3       1 <0>        -0.1338
      9 C9          5.4865   -1.6989    1.3815 C.2       1 <0>         0.5192
     10 O1          6.0047   -1.9897    0.3242 O.2       1 <0>        -0.5099
     11 N1          6.0868   -2.0337    2.5408 N.am      1 <0>        -0.7562
     12 C10         7.3653   -2.7489    2.5238 C.3       1 <0>         0.1039
     13 C11         7.8255   -3.0050    3.9603 C.3       1 <0>         0.0292
     14 H1          7.1404   -3.6885    4.4619 H         1 <0>         0.1637
     15 C12         9.2600   -3.5753    3.9725 C.3       1 <0>         0.0646
     16 C13         9.9363   -2.9327    5.2011 C.3       1 <0>         0.0585
     17 H2         10.2437   -3.7020    5.9096 H         1 <0>         0.1136
     18 C14         8.8535   -2.0283    5.8278 C.3       1 <0>         0.0437
     19 H3          8.3297   -2.5580    6.6236 H         1 <0>         0.1679
     20 N2          7.9220   -1.7257    4.7094 N.4       1 <0>        -0.5144
     21 C15         9.4802   -0.7412    6.3677 C.3       1 <0>         0.0645
     22 O2         10.2406   -0.1118    5.3344 O.3       1 <0>        -0.5523
     23 O3         11.0635   -2.1532    4.7962 O.3       1 <0>        -0.5187
     24 O4          9.2278   -4.9972    4.1107 O.3       1 <0>        -0.5422
     25 H4         -0.9591    1.9053    0.0259 H         1 <0>         0.1244
     26 H5          1.1563    3.1654    0.0076 H         1 <0>         0.1241
     27 H6          3.3051    1.9634   -0.0196 H         1 <0>         0.1206
     28 H7          1.2231   -1.7588   -0.0176 H         1 <0>         0.1215
     29 H8         -0.9258   -0.5567    0.0082 H         1 <0>         0.1246
     30 H9          3.5884   -1.6586   -0.5549 H         1 <0>         0.0826
     31 H10         4.4573   -0.1052   -0.5563 H         1 <0>         0.0819
     32 H11         4.2941   -0.0118    1.9163 H         1 <0>         0.0994
     33 H12         3.4252   -1.5652    1.9176 H         1 <0>         0.1016
     34 H13         5.6724   -1.8012    3.3864 H         1 <0>         0.3962
     35 H14         7.2425   -3.7004    2.0065 H         1 <0>         0.1189
     36 H15         8.1114   -2.1469    2.0051 H         1 <0>         0.0975
     37 H16         9.7868   -3.2946    3.0604 H         1 <0>         0.1087
     38 H17         8.3027   -1.0000    4.1208 H         1 <0>         0.4420
     39 H18         8.6926   -0.0659    6.7019 H         1 <0>         0.0701
     40 H19        10.1344   -0.9797    7.2064 H         1 <0>         0.0942
     41 H20        10.6675    0.7121    5.6065 H         1 <0>         0.4013
     42 H21        11.7569   -2.6636    4.3558 H         1 <0>         0.3927
     43 H22        10.1017   -5.4110    4.1246 H         1 <0>         0.4074
     44 H23         7.0170   -1.4557    5.0646 H         1 <0>         0.4321
@<TRIPOS>BOND
     1    1    6 ar
     2    1    2 ar
     3    1   25 1
     4    2    3 ar
     5    2   26 1
     6    3    4 ar
     7    3   27 1
     8    4    5 ar
     9    4    7 1
    10    5    6 ar
    11    5   28 1
    12    6   29 1
    13    7    8 1
    14    7   30 1
    15    7   31 1
    16    8    9 1
    17    8   32 1
    18    8   33 1
    19    9   10 2
    20    9   11 am
    21   11   12 1
    22   11   34 1
    23   12   13 1
    24   12   35 1
    25   12   36 1
    26   13   14 1
    27   13   20 1
    28   13   15 1
    29   15   16 1
    30   15   24 1
    31   15   37 1
    32   16   17 1
    33   16   18 1
    34   16   23 1
    35   18   19 1
    36   18   20 1
    37   18   21 1
    38   20   38 1
    39   20   44 1
    40   21   22 1
    41   21   39 1
    42   21   40 1
    43   22   41 1
    44   23   42 1
    45   24   43 1
@<TRIPOS>MOLECULE
CHEMBL274669__3
   43    44     0     0     0
SMALL
USER_CHARGES

@<TRIPOS>ATOM
      1 C1         -0.0167    1.3781    0.0096 C.ar      1 <0>        -0.1240
      2 C2          1.1709    2.0855    0.0021 C.ar      1 <0>        -0.1181
      3 C3          2.3773    1.4107   -0.0130 C.ar      1 <0>        -0.1166
      4 C4          2.3960    0.0285   -0.0201 C.ar      1 <0>        -0.0842
      5 C5          1.2084   -0.6789   -0.0117 C.ar      1 <0>        -0.1167
      6 C6          0.0021   -0.0041    0.0020 C.ar      1 <0>        -0.1181
      7 C7          3.7112   -0.7071   -0.0376 C.3       1 <0>        -0.0649
      8 C8          4.1714   -0.9633    1.3989 C.3       1 <0>        -0.1336
      9 C9          5.4865   -1.6989    1.3815 C.2       1 <0>         0.5128
     10 O1          6.0047   -1.9897    0.3242 O.2       1 <0>        -0.5421
     11 N1          6.0868   -2.0337    2.5408 N.am      1 <0>        -0.7249
     12 C10         7.3653   -2.7489    2.5238 C.3       1 <0>         0.1263
     13 C11         7.8255   -3.0050    3.9603 C.3       1 <0>         0.0645
     14 H1          7.1270   -3.6689    4.4697 H         1 <0>         0.1109
     15 C12         9.2466   -3.6080    3.9710 C.3       1 <0>         0.0457
     16 C13         9.9426   -2.9722    5.1920 C.3       1 <0>         0.0410
     17 H2         10.2352   -3.7431    5.9049 H         1 <0>         0.0804
     18 C14         8.8834   -2.0386    5.8164 C.3       1 <0>         0.0841
     19 H3          8.3510   -2.5503    6.6181 H         1 <0>         0.1116
     20 N2          7.9544   -1.7228    4.6995 N.3       1 <0>        -0.6389
     21 C15         9.5418   -0.7623    6.3442 C.3       1 <0>         0.0892
     22 O2          8.5655    0.0330    7.0198 O.3       1 <0>        -0.5670
     23 O3         11.0856   -2.2218    4.7768 O.3       1 <0>        -0.5571
     24 O4          9.1823   -5.0277    4.1199 O.3       1 <0>        -0.5522
     25 H4         -0.9591    1.9053    0.0259 H         1 <0>         0.1211
     26 H5          1.1563    3.1654    0.0076 H         1 <0>         0.1218
     27 H6          3.3051    1.9634   -0.0196 H         1 <0>         0.1216
     28 H7          1.2231   -1.7588   -0.0176 H         1 <0>         0.1216
     29 H8         -0.9258   -0.5567    0.0082 H         1 <0>         0.1218
     30 H9          3.5884   -1.6586   -0.5549 H         1 <0>         0.0801
     31 H10         4.4573   -0.1052   -0.5563 H         1 <0>         0.0800
     32 H11         4.2941   -0.0118    1.9163 H         1 <0>         0.0966
     33 H12         3.4252   -1.5652    1.9176 H         1 <0>         0.0958
     34 H13         5.6724   -1.8012    3.3864 H         1 <0>         0.4100
     35 H14         7.2425   -3.7004    2.0065 H         1 <0>         0.0791
     36 H15         8.1114   -2.1469    2.0051 H         1 <0>         0.0675
     37 H16         9.7758   -3.3462    3.0547 H         1 <0>         0.0766
     38 H17         8.3353   -1.0005    4.1068 H         1 <0>         0.3442
     39 H18        10.3397   -1.0255    7.0387 H         1 <0>         0.0543
     40 H19         9.9577   -0.1965    5.5106 H         1 <0>         0.0547
     41 H20         8.9133    0.8596    7.3813 H         1 <0>         0.3807
     42 H21        11.7653   -2.7511    4.3375 H         1 <0>         0.3824
     43 H22        10.0465   -5.4614    4.1333 H         1 <0>         0.3822
@<TRIPOS>BOND
     1    1    6 ar
     2    1    2 ar
     3    1   25 1
     4    2    3 ar
     5    2   26 1
     6    3    4 ar
     7    3   27 1
     8    4    5 ar
     9    4    7 1
    10    5    6 ar
    11    5   28 1
    12    6   29 1
    13    7    8 1
    14    7   30 1
    15    7   31 1
    16    8    9 1
    17    8   32 1
    18    8   33 1
    19    9   10 2
    20    9   11 am
    21   11   12 1
    22   11   34 1
    23   12   13 1
    24   12   35 1
    25   12   36 1
    26   13   14 1
    27   13   20 1
    28   13   15 1
    29   15   16 1
    30   15   24 1
    31   15   37 1
    32   16   17 1
    33   16   18 1
    34   16   23 1
    35   18   19 1
    36   18   20 1
    37   18   21 1
    38   20   38 1
    39   21   22 1
    40   21   39 1
    41   21   40 1
    42   22   41 1
    43   23   42 1
    44   24   43 1
@<TRIPOS>MOLECULE
CHEMBL9745
   26    26     0     0     0
SMALL
USER_CHARGES

@<TRIPOS>ATOM
      1 C1         -0.0187    1.5258    0.0104 C.3       1 <0>         0.0420
      2 C2          0.0021   -0.0041    0.0020 C.3       1 <0>         0.0379
      3 H1          0.4199   -0.3639   -0.9382 H         1 <0>         0.1598
      4 C3         -1.4301   -0.5495    0.1829 C.3       1 <0>         0.0642
      5 C4         -1.2204   -1.7860    1.0961 C.3       1 <0>         0.0593
      6 H2         -2.1185   -2.0004    1.6754 H         1 <0>         0.1119
      7 C5         -0.0694   -1.3051    2.0145 C.3       1 <0>         0.0350
      8 H3         -0.4618   -0.6899    2.8242 H         1 <0>         0.1651
      9 N1          0.8083   -0.5010    1.1320 N.4       1 <0>        -0.5041
     10 C6          0.6966   -2.5028    2.5800 C.3       1 <0>         0.0606
     11 O1          1.1185   -3.3479    1.5077 O.3       1 <0>        -0.5496
     12 O2         -0.8237   -2.9260    0.3311 O.3       1 <0>        -0.5127
     13 O3         -1.9852   -0.9388   -1.0751 O.3       1 <0>        -0.5368
     14 N2          1.3595    2.0342    0.0000 N.3       1 <0>        -0.8495
     15 H4         -0.5459    1.8868   -0.8726 H         1 <0>         0.1256
     16 H5         -0.5289    1.8773    0.9072 H         1 <0>         0.0567
     17 H6         -2.0646    0.1887    0.6734 H         1 <0>         0.1043
     18 H7          1.5621   -1.0750    0.7849 H         1 <0>         0.4442
     19 H8          1.5693   -2.1495    3.1292 H         1 <0>         0.0709
     20 H9          0.0477   -3.0647    3.2518 H         1 <0>         0.0932
     21 H10         1.6115   -4.1292    1.7933 H         1 <0>         0.4008
     22 H11        -1.4756   -3.2045   -0.3266 H         1 <0>         0.3933
     23 H12        -2.8847   -1.2888   -1.0167 H         1 <0>         0.4037
     24 H13         1.3727    3.0431    0.0053 H         1 <0>         0.3754
     25 H14         1.8883    1.6616    0.7744 H         1 <0>         0.3286
     26 H15         1.1870    0.2791    1.6479 H         1 <0>         0.4202
@<TRIPOS>BOND
     1    1    2 1
     2    1   14 1
     3    1   15 1
     4    1   16 1
     5    2    3 1
     6    2    9 1
     7    2    4 1
     8    4    5 1
     9    4   13 1
    10    4   17 1
    11    5    6 1
    12    5    7 1
    13    5   12 1
    14    7    8 1
    15    7    9 1
    16    7   10 1
    17    9   18 1
    18    9   26 1
    19   10   11 1
    20   10   19 1
    21   10   20 1
    22   11   21 1
    23   12   22 1
    24   13   23 1
    25   14   24 1
    26   14   25 1
@<TRIPOS>MOLECULE
CHEMBL9745__1
   27    27     0     0     0
SMALL
USER_CHARGES

@<TRIPOS>ATOM
      1 C1         -0.0187    1.5258    0.0104 C.3       1 <0>        -0.0218
      2 C2          0.0021   -0.0041    0.0020 C.3       1 <0>         0.0045
      3 H1          0.4199   -0.3639   -0.9382 H         1 <0>         0.1806
      4 C3         -1.4301   -0.5495    0.1829 C.3       1 <0>         0.0692
      5 C4         -1.2204   -1.7860    1.0961 C.3       1 <0>         0.0609
      6 H2         -2.1185   -2.0004    1.6754 H         1 <0>         0.1253
      7 C5         -0.0694   -1.3051    2.0145 C.3       1 <0>         0.0373
      8 H3         -0.4618   -0.6899    2.8242 H         1 <0>         0.1757
      9 N1          0.8083   -0.5010    1.1320 N.4       1 <0>        -0.5178
     10 C6          0.6966   -2.5028    2.5800 C.3       1 <0>         0.0559
     11 O1          1.1185   -3.3479    1.5077 O.3       1 <0>        -0.5546
     12 O2         -0.8237   -2.9260    0.3311 O.3       1 <0>        -0.5106
     13 O3         -1.9852   -0.9388   -1.0751 O.3       1 <0>        -0.5374
     14 N2          1.3595    2.0342    0.0000 N.4       1 <0>        -0.6474
     15 H4         -0.5459    1.8868   -0.8726 H         1 <0>         0.1872
     16 H5         -0.5289    1.8773    0.9072 H         1 <0>         0.1642
     17 H6         -2.0646    0.1887    0.6734 H         1 <0>         0.1162
     18 H7          1.5621   -1.0750    0.7849 H         1 <0>         0.4543
     19 H8          1.5693   -2.1495    3.1292 H         1 <0>         0.0753
     20 H9          0.0477   -3.0647    3.2518 H         1 <0>         0.1029
     21 H10         1.6115   -4.1292    1.7933 H         1 <0>         0.4099
     22 H11        -1.4756   -3.2045   -0.3266 H         1 <0>         0.4009
     23 H12        -2.8847   -1.2888   -1.0167 H         1 <0>         0.4192
     24 H13         1.8475    1.7000    0.8174 H         1 <0>         0.4234
     25 H14         1.8318    1.7088   -0.8301 H         1 <0>         0.4501
     26 H15         1.3458    3.0431    0.0055 H         1 <0>         0.4642
     27 H16         1.1870    0.2791    1.6479 H         1 <0>         0.4123
@<TRIPOS>BOND
     1    1    2 1
     2    1   14 1
     3    1   15 1
     4    1   16 1
     5    2    3 1
     6    2    9 1
     7    2    4 1
     8    4    5 1
     9    4   13 1
    10    4   17 1
    11    5    6 1
    12    5    7 1
    13    5   12 1
    14    7    8 1
    15    7    9 1
    16    7   10 1
    17    9   18 1
    18    9   27 1
    19   10   11 1
    20   10   19 1
    21   10   20 1
    22   11   21 1
    23   12   22 1
    24   13   23 1
    25   14   24 1
    26   14   25 1
    27   14   26 1
@<TRIPOS>MOLECULE
CHEMBL9745__2
   26    26     0     0     0
SMALL
USER_CHARGES

@<TRIPOS>ATOM
      1 C1         -0.0187    1.5258    0.0104 C.3       1 <0>         0.0450
      2 C2          0.0021   -0.0041    0.0020 C.3       1 <0>         0.0436
      3 H1          0.4199   -0.3639   -0.9382 H         1 <0>         0.1587
      4 C3         -1.4301   -0.5495    0.1829 C.3       1 <0>         0.0608
      5 C4         -1.2204   -1.7860    1.0961 C.3       1 <0>         0.0642
      6 H2         -2.1185   -2.0004    1.6754 H         1 <0>         0.1117
      7 C5         -0.0694   -1.3051    2.0145 C.3       1 <0>         0.0405
      8 H3         -0.4618   -0.6899    2.8242 H         1 <0>         0.1642
      9 N1          0.8083   -0.5010    1.1320 N.4       1 <0>        -0.5069
     10 C6          0.6966   -2.5028    2.5800 C.3       1 <0>         0.0598
     11 O1          1.1185   -3.3479    1.5077 O.3       1 <0>        -0.5509
     12 O2         -0.8237   -2.9260    0.3311 O.3       1 <0>        -0.5176
     13 O3         -2.2619    0.4183    0.8260 O.3       1 <0>        -0.5489
     14 N2          1.3595    2.0342    0.0000 N.3       1 <0>        -0.8534
     15 H4         -0.5459    1.8868   -0.8726 H         1 <0>         0.1206
     16 H5         -0.5289    1.8773    0.9072 H         1 <0>         0.0696
     17 H6         -1.8535   -0.8464   -0.7766 H         1 <0>         0.1143
     18 H7          1.5621   -1.0750    0.7849 H         1 <0>         0.4414
     19 H8          1.5693   -2.1495    3.1292 H         1 <0>         0.0704
     20 H9          0.0477   -3.0647    3.2518 H         1 <0>         0.0925
     21 H10         1.6115   -4.1292    1.7933 H         1 <0>         0.4007
     22 H11        -1.4756   -3.2045   -0.3266 H         1 <0>         0.3939
     23 H12        -3.1730    0.1247    0.9634 H         1 <0>         0.4051
     24 H13         1.3727    3.0431    0.0053 H         1 <0>         0.3740
     25 H14         1.8883    1.6616    0.7744 H         1 <0>         0.3268
     26 H15         1.1870    0.2791    1.6479 H         1 <0>         0.4200
@<TRIPOS>BOND
     1    1    2 1
     2    1   14 1
     3    1   15 1
     4    1   16 1
     5    2    3 1
     6    2    9 1
     7    2    4 1
     8    4    5 1
     9    4   13 1
    10    4   17 1
    11    5    6 1
    12    5    7 1
    13    5   12 1
    14    7    8 1
    15    7    9 1
    16    7   10 1
    17    9   18 1
    18    9   26 1
    19   10   11 1
    20   10   19 1
    21   10   20 1
    22   11   21 1
    23   12   22 1
    24   13   23 1
    25   14   24 1
    26   14   25 1
@<TRIPOS>MOLECULE
CHEMBL9745__3
   27    27     0     0     0
SMALL
USER_CHARGES

@<TRIPOS>ATOM
      1 C1         -0.0187    1.5258    0.0104 C.3       1 <0>        -0.0193
      2 C2          0.0021   -0.0041    0.0020 C.3       1 <0>         0.0143
      3 H1          0.4199   -0.3639   -0.9382 H         1 <0>         0.1795
      4 C3         -1.4301   -0.5495    0.1829 C.3       1 <0>         0.0659
      5 C4         -1.2204   -1.7860    1.0961 C.3       1 <0>         0.0660
      6 H2         -2.1185   -2.0004    1.6754 H         1 <0>         0.1247
      7 C5         -0.0694   -1.3051    2.0145 C.3       1 <0>         0.0426
      8 H3         -0.4618   -0.6899    2.8242 H         1 <0>         0.1747
      9 N1          0.8083   -0.5010    1.1320 N.4       1 <0>        -0.5214
     10 C6          0.6966   -2.5028    2.5800 C.3       1 <0>         0.0554
     11 O1          1.1185   -3.3479    1.5077 O.3       1 <0>        -0.5558
     12 O2         -0.8237   -2.9260    0.3311 O.3       1 <0>        -0.5156
     13 O3         -2.2619    0.4183    0.8260 O.3       1 <0>        -0.5581
     14 N2          1.3595    2.0342    0.0000 N.4       1 <0>        -0.6490
     15 H4         -0.5459    1.8868   -0.8726 H         1 <0>         0.1841
     16 H5         -0.5289    1.8773    0.9072 H         1 <0>         0.1728
     17 H6         -1.8535   -0.8464   -0.7766 H         1 <0>         0.1291
     18 H7          1.5621   -1.0750    0.7849 H         1 <0>         0.4516
     19 H8          1.5693   -2.1495    3.1292 H         1 <0>         0.0748
     20 H9          0.0477   -3.0647    3.2518 H         1 <0>         0.1022
     21 H10         1.6115   -4.1292    1.7933 H         1 <0>         0.4099
     22 H11        -1.4756   -3.2045   -0.3266 H         1 <0>         0.4017
     23 H12        -3.1730    0.1247    0.9634 H         1 <0>         0.4247
     24 H13         1.8475    1.7000    0.8174 H         1 <0>         0.4225
     25 H14         1.8318    1.7088   -0.8301 H         1 <0>         0.4469
     26 H15         1.3458    3.0431    0.0055 H         1 <0>         0.4638
     27 H16         1.1870    0.2791    1.6479 H         1 <0>         0.4121
@<TRIPOS>BOND
     1    1    2 1
     2    1   14 1
     3    1   15 1
     4    1   16 1
     5    2    3 1
     6    2    9 1
     7    2    4 1
     8    4    5 1
     9    4   13 1
    10    4   17 1
    11    5    6 1
    12    5    7 1
    13    5   12 1
    14    7    8 1
    15    7    9 1
    16    7   10 1
    17    9   18 1
    18    9   27 1
    19   10   11 1
    20   10   19 1
    21   10   20 1
    22   11   21 1
    23   12   22 1
    24   13   23 1
    25   14   24 1
    26   14   25 1
    27   14   26 1
@<TRIPOS>MOLECULE
CHEMBL422734
   50    50     0     0     0
SMALL
USER_CHARGES

@<TRIPOS>ATOM
      1 C1         -0.0187    1.5258    0.0104 C.3       1 <0>        -0.1561
      2 C2          0.0021   -0.0041    0.0020 C.3       1 <0>        -0.1265
      3 C3          0.7421   -0.5109    1.2415 C.3       1 <0>        -0.1218
      4 C4          0.7628   -2.0407    1.2331 C.3       1 <0>        -0.1223
      5 C5          1.5028   -2.5476    2.4727 C.3       1 <0>        -0.1211
      6 C6          1.5236   -4.0774    2.4642 C.3       1 <0>        -0.1180
      7 C7          2.2636   -4.5842    3.7038 C.3       1 <0>        -0.1473
      8 C8          2.2843   -6.1141    3.6954 C.3       1 <0>        -0.0146
      9 N1          2.9948   -6.6007    4.8855 N.4       1 <0>        -0.5007
     10 C9          3.0147   -8.0696    4.8774 C.3       1 <0>         0.0873
     11 C10         1.6108   -8.5867    4.9944 C.2       1 <0>        -0.1881
     12 C11         1.2644   -9.5799    5.7488 C.2       1 <0>        -0.0814
     13 C12         2.2163  -10.3463    6.6197 C.3       1 <0>         0.1053
     14 C13         3.6587  -10.0866    6.1798 C.3       1 <0>         0.0922
     15 C14         3.8609   -8.5718    6.0493 C.3       1 <0>         0.0940
     16 O1          3.4440   -7.9264    7.2541 O.3       1 <0>        -0.5620
     17 O2          3.8963  -10.7135    4.9179 O.3       1 <0>        -0.5543
     18 O3          1.9335  -11.7432    6.5157 O.3       1 <0>        -0.5541
     19 C15        -0.1852   -9.9920    5.7530 C.3       1 <0>         0.0944
     20 O4         -0.9231   -9.1474    4.8674 O.3       1 <0>        -0.5731
     21 H1          1.0039    1.9031    0.0027 H         1 <0>         0.0542
     22 H2         -0.5459    1.8868   -0.8726 H         1 <0>         0.0564
     23 H3         -0.5289    1.8773    0.9072 H         1 <0>         0.0541
     24 H4         -1.0205   -0.3814    0.0098 H         1 <0>         0.0612
     25 H5          0.5123   -0.3556   -0.8948 H         1 <0>         0.0612
     26 H6          1.7647   -0.1336    1.2338 H         1 <0>         0.0619
     27 H7          0.2319   -0.1594    2.1383 H         1 <0>         0.0618
     28 H8         -0.2598   -2.4180    1.2409 H         1 <0>         0.0635
     29 H9          1.2730   -2.3923    0.3363 H         1 <0>         0.0636
     30 H10         2.5254   -2.1703    2.4649 H         1 <0>         0.0657
     31 H11         0.9926   -2.1961    3.3695 H         1 <0>         0.0657
     32 H12         0.5010   -4.4547    2.4720 H         1 <0>         0.0739
     33 H13         2.0337   -4.4289    1.5675 H         1 <0>         0.0738
     34 H14         3.2861   -4.2070    3.6960 H         1 <0>         0.0867
     35 H15         1.7534   -4.2327    4.6006 H         1 <0>         0.0867
     36 H16         1.2617   -6.4914    3.7031 H         1 <0>         0.1338
     37 H17         2.7945   -6.4656    2.7986 H         1 <0>         0.1317
     38 H18         3.9414   -6.2515    4.8783 H         1 <0>         0.4272
     39 H19         3.4498   -8.4198    3.9414 H         1 <0>         0.1625
     40 H20         0.8417   -8.0997    4.4134 H         1 <0>         0.1491
     41 H21         2.0921  -10.0308    7.6556 H         1 <0>         0.0918
     42 H22         4.3466  -10.4851    6.9256 H         1 <0>         0.0907
     43 H23         4.9127   -8.3574    5.8602 H         1 <0>         0.1031
     44 H24         3.9399   -8.1990    8.0383 H         1 <0>         0.4109
     45 H25         3.7701  -11.6722    4.9250 H         1 <0>         0.4062
     46 H26         1.0379  -11.9846    6.7888 H         1 <0>         0.3930
     47 H27        -0.2696  -11.0272    5.4223 H         1 <0>         0.0746
     48 H28        -0.5864   -9.8991    6.7622 H         1 <0>         0.0719
     49 H29        -1.8662   -9.3557    4.8199 H         1 <0>         0.3977
     50 H30         2.5225   -6.2753    5.7156 H         1 <0>         0.4335
@<TRIPOS>BOND
     1    1    2 1
     2    1   21 1
     3    1   22 1
     4    1   23 1
     5    2    3 1
     6    2   24 1
     7    2   25 1
     8    3    4 1
     9    3   26 1
    10    3   27 1
    11    4    5 1
    12    4   28 1
    13    4   29 1
    14    5    6 1
    15    5   30 1
    16    5   31 1
    17    6    7 1
    18    6   32 1
    19    6   33 1
    20    7    8 1
    21    7   34 1
    22    7   35 1
    23    8    9 1
    24    8   36 1
    25    8   37 1
    26    9   10 1
    27    9   38 1
    28    9   50 1
    29   10   15 1
    30   10   11 1
    31   10   39 1
    32   11   12 2
    33   11   40 1
    34   12   13 1
    35   12   19 1
    36   13   14 1
    37   13   18 1
    38   13   41 1
    39   14   15 1
    40   14   17 1
    41   14   42 1
    42   15   16 1
    43   15   43 1
    44   16   44 1
    45   17   45 1
    46   18   46 1
    47   19   20 1
    48   19   47 1
    49   19   48 1
    50   20   49 1
@<TRIPOS>MOLECULE
CHEMBL422734__1
   50    50     0     0     0
SMALL
USER_CHARGES

@<TRIPOS>ATOM
      1 C1         -0.0187    1.5258    0.0104 C.3       1 <0>        -0.1561
      2 C2          0.0021   -0.0041    0.0020 C.3       1 <0>        -0.1265
      3 C3          0.7421   -0.5109    1.2415 C.3       1 <0>        -0.1218
      4 C4          0.7628   -2.0407    1.2331 C.3       1 <0>        -0.1223
      5 C5          1.5028   -2.5476    2.4727 C.3       1 <0>        -0.1211
      6 C6          1.5236   -4.0774    2.4642 C.3       1 <0>        -0.1181
      7 C7          2.2636   -4.5842    3.7038 C.3       1 <0>        -0.1476
      8 C8          2.2843   -6.1141    3.6954 C.3       1 <0>        -0.0134
      9 N1          2.9948   -6.6007    4.8855 N.4       1 <0>        -0.5038
     10 C9          3.0147   -8.0696    4.8774 C.3       1 <0>         0.0840
     11 C10         1.6108   -8.5867    4.9944 C.2       1 <0>        -0.1881
     12 C11         1.2644   -9.5799    5.7488 C.2       1 <0>        -0.0892
     13 C12         2.2163  -10.3463    6.6197 C.3       1 <0>         0.1004
     14 C13         3.6587  -10.0866    6.1798 C.3       1 <0>         0.0928
     15 C14         3.8609   -8.5718    6.0493 C.3       1 <0>         0.0968
     16 O1          5.2398   -8.2907    5.8014 O.3       1 <0>        -0.5541
     17 O2          3.8963  -10.7135    4.9179 O.3       1 <0>        -0.5478
     18 O3          1.9335  -11.7432    6.5157 O.3       1 <0>        -0.5494
     19 C15        -0.1852   -9.9920    5.7530 C.3       1 <0>         0.0943
     20 O4         -0.9231   -9.1474    4.8674 O.3       1 <0>        -0.5733
     21 H1          1.0039    1.9031    0.0027 H         1 <0>         0.0542
     22 H2         -0.5459    1.8868   -0.8726 H         1 <0>         0.0564
     23 H3         -0.5289    1.8773    0.9072 H         1 <0>         0.0541
     24 H4         -1.0205   -0.3814    0.0098 H         1 <0>         0.0611
     25 H5          0.5123   -0.3556   -0.8948 H         1 <0>         0.0613
     26 H6          1.7647   -0.1336    1.2338 H         1 <0>         0.0619
     27 H7          0.2319   -0.1594    2.1383 H         1 <0>         0.0617
     28 H8         -0.2598   -2.4180    1.2409 H         1 <0>         0.0635
     29 H9          1.2730   -2.3923    0.3363 H         1 <0>         0.0637
     30 H10         2.5254   -2.1703    2.4649 H         1 <0>         0.0659
     31 H11         0.9926   -2.1961    3.3695 H         1 <0>         0.0655
     32 H12         0.5010   -4.4547    2.4720 H         1 <0>         0.0739
     33 H13         2.0337   -4.4289    1.5675 H         1 <0>         0.0742
     34 H14         3.2861   -4.2070    3.6960 H         1 <0>         0.0873
     35 H15         1.7534   -4.2327    4.6006 H         1 <0>         0.0864
     36 H16         1.2617   -6.4914    3.7031 H         1 <0>         0.1341
     37 H17         2.7945   -6.4656    2.7986 H         1 <0>         0.1327
     38 H18         3.9414   -6.2515    4.8783 H         1 <0>         0.4348
     39 H19         3.4498   -8.4198    3.9414 H         1 <0>         0.1619
     40 H20         0.8417   -8.0997    4.4134 H         1 <0>         0.1554
     41 H21         2.0921  -10.0308    7.6556 H         1 <0>         0.0904
     42 H22         4.3466  -10.4851    6.9256 H         1 <0>         0.0916
     43 H23         3.5429   -8.0795    6.9683 H         1 <0>         0.0959
     44 H24         5.8338   -8.5832    6.5062 H         1 <0>         0.4079
     45 H25         3.7701  -11.6722    4.9250 H         1 <0>         0.4014
     46 H26         1.0379  -11.9846    6.7888 H         1 <0>         0.3938
     47 H27        -0.2696  -11.0272    5.4223 H         1 <0>         0.0767
     48 H28        -0.5864   -9.8991    6.7622 H         1 <0>         0.0735
     49 H29        -1.8662   -9.3557    4.8199 H         1 <0>         0.3990
     50 H30         2.5225   -6.2753    5.7156 H         1 <0>         0.4235
@<TRIPOS>BOND
     1    1    2 1
     2    1   21 1
     3    1   22 1
     4    1   23 1
     5    2    3 1
     6    2   24 1
     7    2   25 1
     8    3    4 1
     9    3   26 1
    10    3   27 1
    11    4    5 1
    12    4   28 1
    13    4   29 1
    14    5    6 1
    15    5   30 1
    16    5   31 1
    17    6    7 1
    18    6   32 1
    19    6   33 1
    20    7    8 1
    21    7   34 1
    22    7   35 1
    23    8    9 1
    24    8   36 1
    25    8   37 1
    26    9   10 1
    27    9   38 1
    28    9   50 1
    29   10   15 1
    30   10   11 1
    31   10   39 1
    32   11   12 2
    33   11   40 1
    34   12   13 1
    35   12   19 1
    36   13   14 1
    37   13   18 1
    38   13   41 1
    39   14   15 1
    40   14   17 1
    41   14   42 1
    42   15   16 1
    43   15   43 1
    44   16   44 1
    45   17   45 1
    46   18   46 1
    47   19   20 1
    48   19   47 1
    49   19   48 1
    50   20   49 1
@<TRIPOS>MOLECULE
CHEMBL422734__2
   50    50     0     0     0
SMALL
USER_CHARGES

@<TRIPOS>ATOM
      1 C1         -0.0187    1.5258    0.0104 C.3       1 <0>        -0.1562
      2 C2          0.0021   -0.0041    0.0020 C.3       1 <0>        -0.1264
      3 C3          0.7421   -0.5109    1.2415 C.3       1 <0>        -0.1219
      4 C4          0.7628   -2.0407    1.2331 C.3       1 <0>        -0.1222
      5 C5          1.5028   -2.5476    2.4727 C.3       1 <0>        -0.1214
      6 C6          1.5236   -4.0774    2.4642 C.3       1 <0>        -0.1178
      7 C7          2.2636   -4.5842    3.7038 C.3       1 <0>        -0.1477
      8 C8          2.2843   -6.1141    3.6954 C.3       1 <0>        -0.0148
      9 N1          2.9948   -6.6007    4.8855 N.4       1 <0>        -0.4978
     10 C9          3.0147   -8.0696    4.8774 C.3       1 <0>         0.0830
     11 C10         1.6108   -8.5867    4.9944 C.2       1 <0>        -0.2012
     12 C11         1.2644   -9.5799    5.7488 C.2       1 <0>        -0.0770
     13 C12         2.2164  -10.3470    6.6190 C.3       1 <0>         0.1045
     14 C13         3.6588  -10.0869    6.1790 C.3       1 <0>         0.0919
     15 C14         3.8609   -8.5718    6.0493 C.3       1 <0>         0.0956
     16 O1          3.4440   -7.9264    7.2541 O.3       1 <0>        -0.5666
     17 O2          4.5608  -10.6100    7.1562 O.3       1 <0>        -0.5549
     18 O3          1.9337  -11.7438    6.5140 O.3       1 <0>        -0.5541
     19 C15        -0.1852   -9.9920    5.7530 C.3       1 <0>         0.0935
     20 O4         -0.9231   -9.1474    4.8674 O.3       1 <0>        -0.5733
     21 H1          1.0039    1.9031    0.0027 H         1 <0>         0.0542
     22 H2         -0.5459    1.8868   -0.8726 H         1 <0>         0.0564
     23 H3         -0.5289    1.8773    0.9072 H         1 <0>         0.0542
     24 H4         -1.0205   -0.3814    0.0098 H         1 <0>         0.0612
     25 H5          0.5123   -0.3556   -0.8948 H         1 <0>         0.0612
     26 H6          1.7647   -0.1336    1.2338 H         1 <0>         0.0619
     27 H7          0.2319   -0.1594    2.1383 H         1 <0>         0.0619
     28 H8         -0.2598   -2.4180    1.2409 H         1 <0>         0.0635
     29 H9          1.2730   -2.3923    0.3363 H         1 <0>         0.0635
     30 H10         2.5254   -2.1703    2.4649 H         1 <0>         0.0659
     31 H11         0.9926   -2.1961    3.3695 H         1 <0>         0.0659
     32 H12         0.5010   -4.4547    2.4720 H         1 <0>         0.0740
     33 H13         2.0337   -4.4289    1.5675 H         1 <0>         0.0738
     34 H14         3.2861   -4.2070    3.6960 H         1 <0>         0.0872
     35 H15         1.7534   -4.2327    4.6006 H         1 <0>         0.0874
     36 H16         1.2617   -6.4914    3.7031 H         1 <0>         0.1348
     37 H17         2.7945   -6.4656    2.7986 H         1 <0>         0.1322
     38 H18         3.9414   -6.2515    4.8783 H         1 <0>         0.4288
     39 H19         3.4498   -8.4198    3.9414 H         1 <0>         0.1584
     40 H20         0.8417   -8.0997    4.4134 H         1 <0>         0.1531
     41 H21         2.0925  -10.0322    7.6551 H         1 <0>         0.0953
     42 H22         3.8399  -10.5644    5.2160 H         1 <0>         0.0870
     43 H23         4.9127   -8.3574    5.8602 H         1 <0>         0.1034
     44 H24         3.9399   -8.1990    8.0383 H         1 <0>         0.4155
     45 H25         4.4754  -11.5624    7.3004 H         1 <0>         0.4059
     46 H26         1.0381  -11.9854    6.7871 H         1 <0>         0.3918
     47 H27        -0.2696  -11.0272    5.4223 H         1 <0>         0.0767
     48 H28        -0.5864   -9.8991    6.7622 H         1 <0>         0.0746
     49 H29        -1.8662   -9.3557    4.8199 H         1 <0>         0.3989
     50 H30         2.5225   -6.2753    5.7156 H         1 <0>         0.4360
@<TRIPOS>BOND
     1    1    2 1
     2    1   21 1
     3    1   22 1
     4    1   23 1
     5    2    3 1
     6    2   24 1
     7    2   25 1
     8    3    4 1
     9    3   26 1
    10    3   27 1
    11    4    5 1
    12    4   28 1
    13    4   29 1
    14    5    6 1
    15    5   30 1
    16    5   31 1
    17    6    7 1
    18    6   32 1
    19    6   33 1
    20    7    8 1
    21    7   34 1
    22    7   35 1
    23    8    9 1
    24    8   36 1
    25    8   37 1
    26    9   10 1
    27    9   38 1
    28    9   50 1
    29   10   15 1
    30   10   11 1
    31   10   39 1
    32   11   12 2
    33   11   40 1
    34   12   13 1
    35   12   19 1
    36   13   14 1
    37   13   18 1
    38   13   41 1
    39   14   15 1
    40   14   17 1
    41   14   42 1
    42   15   16 1
    43   15   43 1
    44   16   44 1
    45   17   45 1
    46   18   46 1
    47   19   20 1
    48   19   47 1
    49   19   48 1
    50   20   49 1
@<TRIPOS>MOLECULE
CHEMBL422734__3
   50    50     0     0     0
SMALL
USER_CHARGES

@<TRIPOS>ATOM
      1 C1         -0.0187    1.5258    0.0104 C.3       1 <0>        -0.1562
      2 C2          0.0021   -0.0041    0.0020 C.3       1 <0>        -0.1264
      3 C3          0.7421   -0.5109    1.2415 C.3       1 <0>        -0.1219
      4 C4          0.7628   -2.0407    1.2331 C.3       1 <0>        -0.1222
      5 C5          1.5028   -2.5476    2.4727 C.3       1 <0>        -0.1213
      6 C6          1.5236   -4.0774    2.4642 C.3       1 <0>        -0.1178
      7 C7          2.2636   -4.5842    3.7038 C.3       1 <0>        -0.1480
      8 C8          2.2843   -6.1141    3.6954 C.3       1 <0>        -0.0139
      9 N1          2.9948   -6.6007    4.8855 N.4       1 <0>        -0.5009
     10 C9          3.0147   -8.0696    4.8774 C.3       1 <0>         0.0808
     11 C10         1.6108   -8.5867    4.9944 C.2       1 <0>        -0.2010
     12 C11         1.2644   -9.5799    5.7488 C.2       1 <0>        -0.0849
     13 C12         2.2163  -10.3463    6.6197 C.3       1 <0>         0.0991
     14 C13         3.6587  -10.0866    6.1798 C.3       1 <0>         0.0943
     15 C14         3.8609   -8.5718    6.0493 C.3       1 <0>         0.0982
     16 O1          5.2398   -8.2907    5.8014 O.3       1 <0>        -0.5577
     17 O2          4.5605  -10.6090    7.1576 O.3       1 <0>        -0.5545
     18 O3          1.9335  -11.7432    6.5157 O.3       1 <0>        -0.5494
     19 C15        -0.1852   -9.9920    5.7530 C.3       1 <0>         0.0933
     20 O4         -0.9231   -9.1474    4.8674 O.3       1 <0>        -0.5734
     21 H1          1.0039    1.9031    0.0027 H         1 <0>         0.0543
     22 H2         -0.5459    1.8868   -0.8726 H         1 <0>         0.0564
     23 H3         -0.5289    1.8773    0.9072 H         1 <0>         0.0541
     24 H4         -1.0205   -0.3814    0.0098 H         1 <0>         0.0611
     25 H5          0.5123   -0.3556   -0.8948 H         1 <0>         0.0613
     26 H6          1.7647   -0.1336    1.2338 H         1 <0>         0.0620
     27 H7          0.2319   -0.1594    2.1383 H         1 <0>         0.0618
     28 H8         -0.2598   -2.4180    1.2409 H         1 <0>         0.0635
     29 H9          1.2730   -2.3923    0.3363 H         1 <0>         0.0637
     30 H10         2.5254   -2.1703    2.4649 H         1 <0>         0.0661
     31 H11         0.9926   -2.1961    3.3695 H         1 <0>         0.0657
     32 H12         0.5010   -4.4547    2.4720 H         1 <0>         0.0741
     33 H13         2.0337   -4.4289    1.5675 H         1 <0>         0.0742
     34 H14         3.2861   -4.2070    3.6960 H         1 <0>         0.0879
     35 H15         1.7534   -4.2327    4.6006 H         1 <0>         0.0871
     36 H16         1.2617   -6.4914    3.7031 H         1 <0>         0.1351
     37 H17         2.7945   -6.4656    2.7986 H         1 <0>         0.1334
     38 H18         3.9414   -6.2515    4.8783 H         1 <0>         0.4364
     39 H19         3.4498   -8.4198    3.9414 H         1 <0>         0.1571
     40 H20         0.8417   -8.0997    4.4134 H         1 <0>         0.1594
     41 H21         2.0921  -10.0308    7.6556 H         1 <0>         0.0937
     42 H22         3.8400  -10.5648    5.2172 H         1 <0>         0.0878
     43 H23         3.5429   -8.0795    6.9683 H         1 <0>         0.0900
     44 H24         5.8338   -8.5832    6.5062 H         1 <0>         0.4162
     45 H25         4.4751  -11.5613    7.3025 H         1 <0>         0.4071
     46 H26         1.0379  -11.9846    6.7888 H         1 <0>         0.3928
     47 H27        -0.2696  -11.0272    5.4223 H         1 <0>         0.0789
     48 H28        -0.5864   -9.8991    6.7622 H         1 <0>         0.0762
     49 H29        -1.8662   -9.3557    4.8199 H         1 <0>         0.4003
     50 H30         2.5225   -6.2753    5.7156 H         1 <0>         0.4262
@<TRIPOS>BOND
     1    1    2 1
     2    1   21 1
     3    1   22 1
     4    1   23 1
     5    2    3 1
     6    2   24 1
     7    2   25 1
     8    3    4 1
     9    3   26 1
    10    3   27 1
    11    4    5 1
    12    4   28 1
    13    4   29 1
    14    5    6 1
    15    5   30 1
    16    5   31 1
    17    6    7 1
    18    6   32 1
    19    6   33 1
    20    7    8 1
    21    7   34 1
    22    7   35 1
    23    8    9 1
    24    8   36 1
    25    8   37 1
    26    9   10 1
    27    9   38 1
    28    9   50 1
    29   10   15 1
    30   10   11 1
    31   10   39 1
    32   11   12 2
    33   11   40 1
    34   12   13 1
    35   12   19 1
    36   13   14 1
    37   13   18 1
    38   13   41 1
    39   14   15 1
    40   14   17 1
    41   14   42 1
    42   15   16 1
    43   15   43 1
    44   16   44 1
    45   17   45 1
    46   18   46 1
    47   19   20 1
    48   19   47 1
    49   19   48 1
    50   20   49 1
@<TRIPOS>MOLECULE
CHEMBL422734__4
   50    50     0     0     0
SMALL
USER_CHARGES

@<TRIPOS>ATOM
      1 C1         -0.0187    1.5258    0.0104 C.3       1 <0>        -0.1561
      2 C2          0.0021   -0.0041    0.0020 C.3       1 <0>        -0.1264
      3 C3          0.7421   -0.5109    1.2415 C.3       1 <0>        -0.1219
      4 C4          0.7628   -2.0407    1.2331 C.3       1 <0>        -0.1222
      5 C5          1.5028   -2.5476    2.4727 C.3       1 <0>        -0.1212
      6 C6          1.5236   -4.0774    2.4642 C.3       1 <0>        -0.1178
      7 C7          2.2636   -4.5842    3.7038 C.3       1 <0>        -0.1474
      8 C8          2.2843   -6.1141    3.6954 C.3       1 <0>        -0.0145
      9 N1          2.9948   -6.6007    4.8855 N.4       1 <0>        -0.4999
     10 C9          3.0147   -8.0696    4.8774 C.3       1 <0>         0.0855
     11 C10         1.6108   -8.5867    4.9944 C.2       1 <0>        -0.1755
     12 C11         1.2644   -9.5799    5.7488 C.2       1 <0>        -0.0893
     13 C12         2.2164  -10.3470    6.6190 C.3       1 <0>         0.1100
     14 C13         3.6588  -10.0869    6.1790 C.3       1 <0>         0.0857
     15 C14         3.8609   -8.5718    6.0493 C.3       1 <0>         0.0972
     16 O1          3.4440   -7.9264    7.2541 O.3       1 <0>        -0.5478
     17 O2          3.8962  -10.7129    4.9165 O.3       1 <0>        -0.5522
     18 O3          2.0539   -9.9343    7.9774 O.3       1 <0>        -0.5396
     19 C15        -0.1852   -9.9920    5.7530 C.3       1 <0>         0.0976
     20 O4         -0.9231   -9.1474    4.8674 O.3       1 <0>        -0.5743
     21 H1          1.0039    1.9031    0.0027 H         1 <0>         0.0542
     22 H2         -0.5459    1.8868   -0.8726 H         1 <0>         0.0563
     23 H3         -0.5289    1.8773    0.9072 H         1 <0>         0.0542
     24 H4         -1.0205   -0.3814    0.0098 H         1 <0>         0.0611
     25 H5          0.5123   -0.3556   -0.8948 H         1 <0>         0.0612
     26 H6          1.7647   -0.1336    1.2338 H         1 <0>         0.0619
     27 H7          0.2319   -0.1594    2.1383 H         1 <0>         0.0618
     28 H8         -0.2598   -2.4180    1.2409 H         1 <0>         0.0635
     29 H9          1.2730   -2.3923    0.3363 H         1 <0>         0.0635
     30 H10         2.5254   -2.1703    2.4649 H         1 <0>         0.0657
     31 H11         0.9926   -2.1961    3.3695 H         1 <0>         0.0658
     32 H12         0.5010   -4.4547    2.4720 H         1 <0>         0.0737
     33 H13         2.0337   -4.4289    1.5675 H         1 <0>         0.0736
     34 H14         3.2861   -4.2070    3.6960 H         1 <0>         0.0867
     35 H15         1.7534   -4.2327    4.6006 H         1 <0>         0.0868
     36 H16         1.2617   -6.4914    3.7031 H         1 <0>         0.1332
     37 H17         2.7945   -6.4656    2.7986 H         1 <0>         0.1312
     38 H18         3.9414   -6.2515    4.8783 H         1 <0>         0.4272
     39 H19         3.4498   -8.4198    3.9414 H         1 <0>         0.1600
     40 H20         0.8417   -8.0997    4.4134 H         1 <0>         0.1479
     41 H21         2.0008  -11.4124    6.5389 H         1 <0>         0.0787
     42 H22         4.3468  -10.4859    6.9244 H         1 <0>         0.0940
     43 H23         4.9127   -8.3574    5.8602 H         1 <0>         0.0947
     44 H24         3.9399   -8.1990    8.0383 H         1 <0>         0.4101
     45 H25         3.7699  -11.6716    4.9230 H         1 <0>         0.3998
     46 H26         1.1647  -10.0791    8.3288 H         1 <0>         0.3898
     47 H27        -0.2696  -11.0272    5.4223 H         1 <0>         0.0716
     48 H28        -0.5864   -9.8991    6.7622 H         1 <0>         0.0701
     49 H29        -1.8662   -9.3557    4.8199 H         1 <0>         0.3975
     50 H30         2.5225   -6.2753    5.7156 H         1 <0>         0.4344
@<TRIPOS>BOND
     1    1    2 1
     2    1   21 1
     3    1   22 1
     4    1   23 1
     5    2    3 1
     6    2   24 1
     7    2   25 1
     8    3    4 1
     9    3   26 1
    10    3   27 1
    11    4    5 1
    12    4   28 1
    13    4   29 1
    14    5    6 1
    15    5   30 1
    16    5   31 1
    17    6    7 1
    18    6   32 1
    19    6   33 1
    20    7    8 1
    21    7   34 1
    22    7   35 1
    23    8    9 1
    24    8   36 1
    25    8   37 1
    26    9   10 1
    27    9   38 1
    28    9   50 1
    29   10   15 1
    30   10   11 1
    31   10   39 1
    32   11   12 2
    33   11   40 1
    34   12   13 1
    35   12   19 1
    36   13   14 1
    37   13   18 1
    38   13   41 1
    39   14   15 1
    40   14   17 1
    41   14   42 1
    42   15   16 1
    43   15   43 1
    44   16   44 1
    45   17   45 1
    46   18   46 1
    47   19   20 1
    48   19   47 1
    49   19   48 1
    50   20   49 1
@<TRIPOS>MOLECULE
CHEMBL422734__5
   50    50     0     0     0
SMALL
USER_CHARGES

@<TRIPOS>ATOM
      1 C1         -0.0187    1.5258    0.0104 C.3       1 <0>        -0.1561
      2 C2          0.0021   -0.0041    0.0020 C.3       1 <0>        -0.1264
      3 C3          0.7421   -0.5109    1.2415 C.3       1 <0>        -0.1218
      4 C4          0.7628   -2.0407    1.2331 C.3       1 <0>        -0.1222
      5 C5          1.5028   -2.5476    2.4727 C.3       1 <0>        -0.1212
      6 C6          1.5236   -4.0774    2.4642 C.3       1 <0>        -0.1178
      7 C7          2.2636   -4.5842    3.7038 C.3       1 <0>        -0.1478
      8 C8          2.2843   -6.1141    3.6954 C.3       1 <0>        -0.0135
      9 N1          2.9948   -6.6007    4.8855 N.4       1 <0>        -0.5032
     10 C9          3.0147   -8.0696    4.8774 C.3       1 <0>         0.0822
     11 C10         1.6108   -8.5867    4.9944 C.2       1 <0>        -0.1761
     12 C11         1.2644   -9.5799    5.7488 C.2       1 <0>        -0.0960
     13 C12         2.2163  -10.3463    6.6197 C.3       1 <0>         0.1013
     14 C13         3.6587  -10.0866    6.1798 C.3       1 <0>         0.0899
     15 C14         3.8609   -8.5718    6.0493 C.3       1 <0>         0.0993
     16 O1          5.2398   -8.2907    5.8014 O.3       1 <0>        -0.5594
     17 O2          3.8963  -10.7135    4.9179 O.3       1 <0>        -0.5456
     18 O3          2.0534   -9.9327    7.9778 O.3       1 <0>        -0.5489
     19 C15        -0.1852   -9.9920    5.7530 C.3       1 <0>         0.0975
     20 O4         -0.9231   -9.1474    4.8674 O.3       1 <0>        -0.5744
     21 H1          1.0039    1.9031    0.0027 H         1 <0>         0.0543
     22 H2         -0.5459    1.8868   -0.8726 H         1 <0>         0.0563
     23 H3         -0.5289    1.8773    0.9072 H         1 <0>         0.0541
     24 H4         -1.0205   -0.3814    0.0098 H         1 <0>         0.0611
     25 H5          0.5123   -0.3556   -0.8948 H         1 <0>         0.0613
     26 H6          1.7647   -0.1336    1.2338 H         1 <0>         0.0620
     27 H7          0.2319   -0.1594    2.1383 H         1 <0>         0.0617
     28 H8         -0.2598   -2.4180    1.2409 H         1 <0>         0.0634
     29 H9          1.2730   -2.3923    0.3363 H         1 <0>         0.0637
     30 H10         2.5254   -2.1703    2.4649 H         1 <0>         0.0660
     31 H11         0.9926   -2.1961    3.3695 H         1 <0>         0.0656
     32 H12         0.5010   -4.4547    2.4720 H         1 <0>         0.0738
     33 H13         2.0337   -4.4289    1.5675 H         1 <0>         0.0741
     34 H14         3.2861   -4.2070    3.6960 H         1 <0>         0.0874
     35 H15         1.7534   -4.2327    4.6006 H         1 <0>         0.0866
     36 H16         1.2617   -6.4914    3.7031 H         1 <0>         0.1337
     37 H17         2.7945   -6.4656    2.7986 H         1 <0>         0.1326
     38 H18         3.9414   -6.2515    4.8783 H         1 <0>         0.4350
     39 H19         3.4498   -8.4198    3.9414 H         1 <0>         0.1608
     40 H20         0.8417   -8.0997    4.4134 H         1 <0>         0.1549
     41 H21         2.0006  -11.4118    6.5404 H         1 <0>         0.0871
     42 H22         4.3466  -10.4851    6.9256 H         1 <0>         0.0958
     43 H23         3.5429   -8.0795    6.9683 H         1 <0>         0.1019
     44 H24         5.8338   -8.5832    6.5062 H         1 <0>         0.4075
     45 H25         3.7701  -11.6722    4.9250 H         1 <0>         0.3957
     46 H26         1.1642  -10.0773    8.3291 H         1 <0>         0.3944
     47 H27        -0.2696  -11.0272    5.4223 H         1 <0>         0.0744
     48 H28        -0.5864   -9.8991    6.7622 H         1 <0>         0.0718
     49 H29        -1.8662   -9.3557    4.8199 H         1 <0>         0.3990
     50 H30         2.5225   -6.2753    5.7156 H         1 <0>         0.4246
@<TRIPOS>BOND
     1    1    2 1
     2    1   21 1
     3    1   22 1
     4    1   23 1
     5    2    3 1
     6    2   24 1
     7    2   25 1
     8    3    4 1
     9    3   26 1
    10    3   27 1
    11    4    5 1
    12    4   28 1
    13    4   29 1
    14    5    6 1
    15    5   30 1
    16    5   31 1
    17    6    7 1
    18    6   32 1
    19    6   33 1
    20    7    8 1
    21    7   34 1
    22    7   35 1
    23    8    9 1
    24    8   36 1
    25    8   37 1
    26    9   10 1
    27    9   38 1
    28    9   50 1
    29   10   15 1
    30   10   11 1
    31   10   39 1
    32   11   12 2
    33   11   40 1
    34   12   13 1
    35   12   19 1
    36   13   14 1
    37   13   18 1
    38   13   41 1
    39   14   15 1
    40   14   17 1
    41   14   42 1
    42   15   16 1
    43   15   43 1
    44   16   44 1
    45   17   45 1
    46   18   46 1
    47   19   20 1
    48   19   47 1
    49   19   48 1
    50   20   49 1
@<TRIPOS>MOLECULE
CHEMBL422734__6
   50    50     0     0     0
SMALL
USER_CHARGES

@<TRIPOS>ATOM
      1 C1         -0.0187    1.5258    0.0104 C.3       1 <0>        -0.1562
      2 C2          0.0021   -0.0041    0.0020 C.3       1 <0>        -0.1263
      3 C3          0.7421   -0.5109    1.2415 C.3       1 <0>        -0.1220
      4 C4          0.7628   -2.0407    1.2331 C.3       1 <0>        -0.1221
      5 C5          1.5028   -2.5476    2.4727 C.3       1 <0>        -0.1215
      6 C6          1.5236   -4.0774    2.4642 C.3       1 <0>        -0.1175
      7 C7          2.2636   -4.5842    3.7038 C.3       1 <0>        -0.1478
      8 C8          2.2843   -6.1141    3.6954 C.3       1 <0>        -0.0146
      9 N1          2.9948   -6.6007    4.8855 N.4       1 <0>        -0.4971
     10 C9          3.0147   -8.0696    4.8774 C.3       1 <0>         0.0816
     11 C10         1.6108   -8.5867    4.9944 C.2       1 <0>        -0.1889
     12 C11         1.2644   -9.5799    5.7488 C.2       1 <0>        -0.0847
     13 C12         2.2163  -10.3463    6.6197 C.3       1 <0>         0.1076
     14 C13         3.6587  -10.0866    6.1798 C.3       1 <0>         0.0883
     15 C14         3.8609   -8.5718    6.0493 C.3       1 <0>         0.0949
     16 O1          3.4440   -7.9264    7.2541 O.3       1 <0>        -0.5529
     17 O2          4.5605  -10.6090    7.1576 O.3       1 <0>        -0.5453
     18 O3          2.0534   -9.9327    7.9778 O.3       1 <0>        -0.5290
     19 C15        -0.1852   -9.9920    5.7530 C.3       1 <0>         0.0967
     20 O4         -0.9231   -9.1474    4.8674 O.3       1 <0>        -0.5747
     21 H1          1.0039    1.9031    0.0027 H         1 <0>         0.0542
     22 H2         -0.5459    1.8868   -0.8726 H         1 <0>         0.0564
     23 H3         -0.5289    1.8773    0.9072 H         1 <0>         0.0542
     24 H4         -1.0205   -0.3814    0.0098 H         1 <0>         0.0611
     25 H5          0.5123   -0.3556   -0.8948 H         1 <0>         0.0611
     26 H6          1.7647   -0.1336    1.2338 H         1 <0>         0.0619
     27 H7          0.2319   -0.1594    2.1383 H         1 <0>         0.0619
     28 H8         -0.2598   -2.4180    1.2409 H         1 <0>         0.0635
     29 H9          1.2730   -2.3923    0.3363 H         1 <0>         0.0634
     30 H10         2.5254   -2.1703    2.4649 H         1 <0>         0.0659
     31 H11         0.9926   -2.1961    3.3695 H         1 <0>         0.0660
     32 H12         0.5010   -4.4547    2.4720 H         1 <0>         0.0738
     33 H13         2.0337   -4.4289    1.5675 H         1 <0>         0.0736
     34 H14         3.2861   -4.2070    3.6960 H         1 <0>         0.0871
     35 H15         1.7534   -4.2327    4.6006 H         1 <0>         0.0874
     36 H16         1.2617   -6.4914    3.7031 H         1 <0>         0.1341
     37 H17         2.7945   -6.4656    2.7986 H         1 <0>         0.1316
     38 H18         3.9414   -6.2515    4.8783 H         1 <0>         0.4286
     39 H19         3.4498   -8.4198    3.9414 H         1 <0>         0.1556
     40 H20         0.8417   -8.0997    4.4134 H         1 <0>         0.1512
     41 H21         2.0006  -11.4118    6.5404 H         1 <0>         0.0785
     42 H22         3.8400  -10.5648    5.2172 H         1 <0>         0.0882
     43 H23         4.9127   -8.3574    5.8602 H         1 <0>         0.0940
     44 H24         3.9399   -8.1990    8.0383 H         1 <0>         0.4146
     45 H25         4.4751  -11.5613    7.3025 H         1 <0>         0.3981
     46 H26         1.1642  -10.0773    8.3291 H         1 <0>         0.3839
     47 H27        -0.2696  -11.0272    5.4223 H         1 <0>         0.0735
     48 H28        -0.5864   -9.8991    6.7622 H         1 <0>         0.0725
     49 H29        -1.8662   -9.3557    4.8199 H         1 <0>         0.3984
     50 H30         2.5225   -6.2753    5.7156 H         1 <0>         0.4368
@<TRIPOS>BOND
     1    1    2 1
     2    1   21 1
     3    1   22 1
     4    1   23 1
     5    2    3 1
     6    2   24 1
     7    2   25 1
     8    3    4 1
     9    3   26 1
    10    3   27 1
    11    4    5 1
    12    4   28 1
    13    4   29 1
    14    5    6 1
    15    5   30 1
    16    5   31 1
    17    6    7 1
    18    6   32 1
    19    6   33 1
    20    7    8 1
    21    7   34 1
    22    7   35 1
    23    8    9 1
    24    8   36 1
    25    8   37 1
    26    9   10 1
    27    9   38 1
    28    9   50 1
    29   10   15 1
    30   10   11 1
    31   10   39 1
    32   11   12 2
    33   11   40 1
    34   12   13 1
    35   12   19 1
    36   13   14 1
    37   13   18 1
    38   13   41 1
    39   14   15 1
    40   14   17 1
    41   14   42 1
    42   15   16 1
    43   15   43 1
    44   16   44 1
    45   17   45 1
    46   18   46 1
    47   19   20 1
    48   19   47 1
    49   19   48 1
    50   20   49 1
@<TRIPOS>MOLECULE
CHEMBL422734__7
   50    50     0     0     0
SMALL
USER_CHARGES

@<TRIPOS>ATOM
      1 C1         -0.0187    1.5258    0.0104 C.3       1 <0>        -0.1562
      2 C2          0.0021   -0.0041    0.0020 C.3       1 <0>        -0.1264
      3 C3          0.7421   -0.5109    1.2415 C.3       1 <0>        -0.1220
      4 C4          0.7628   -2.0407    1.2331 C.3       1 <0>        -0.1221
      5 C5          1.5028   -2.5476    2.4727 C.3       1 <0>        -0.1214
      6 C6          1.5236   -4.0774    2.4642 C.3       1 <0>        -0.1176
      7 C7          2.2636   -4.5842    3.7038 C.3       1 <0>        -0.1482
      8 C8          2.2843   -6.1141    3.6954 C.3       1 <0>        -0.0139
      9 N1          2.9948   -6.6007    4.8855 N.4       1 <0>        -0.5005
     10 C9          3.0147   -8.0696    4.8774 C.3       1 <0>         0.0796
     11 C10         1.6108   -8.5867    4.9944 C.2       1 <0>        -0.1892
     12 C11         1.2644   -9.5799    5.7488 C.2       1 <0>        -0.0914
     13 C12         2.2163  -10.3463    6.6197 C.3       1 <0>         0.0977
     14 C13         3.6587  -10.0866    6.1798 C.3       1 <0>         0.0945
     15 C14         3.8609   -8.5718    6.0493 C.3       1 <0>         0.0958
     16 O1          5.2398   -8.2907    5.8014 O.3       1 <0>        -0.5633
     17 O2          4.5605  -10.6090    7.1576 O.3       1 <0>        -0.5445
     18 O3          2.0534   -9.9327    7.9778 O.3       1 <0>        -0.5388
     19 C15        -0.1852   -9.9920    5.7530 C.3       1 <0>         0.0965
     20 O4         -0.9231   -9.1474    4.8674 O.3       1 <0>        -0.5747
     21 H1          1.0039    1.9031    0.0027 H         1 <0>         0.0543
     22 H2         -0.5459    1.8868   -0.8726 H         1 <0>         0.0564
     23 H3         -0.5289    1.8773    0.9072 H         1 <0>         0.0542
     24 H4         -1.0205   -0.3814    0.0098 H         1 <0>         0.0611
     25 H5          0.5123   -0.3556   -0.8948 H         1 <0>         0.0612
     26 H6          1.7647   -0.1336    1.2338 H         1 <0>         0.0620
     27 H7          0.2319   -0.1594    2.1383 H         1 <0>         0.0618
     28 H8         -0.2598   -2.4180    1.2409 H         1 <0>         0.0634
     29 H9          1.2730   -2.3923    0.3363 H         1 <0>         0.0636
     30 H10         2.5254   -2.1703    2.4649 H         1 <0>         0.0661
     31 H11         0.9926   -2.1961    3.3695 H         1 <0>         0.0658
     32 H12         0.5010   -4.4547    2.4720 H         1 <0>         0.0739
     33 H13         2.0337   -4.4289    1.5675 H         1 <0>         0.0740
     34 H14         3.2861   -4.2070    3.6960 H         1 <0>         0.0880
     35 H15         1.7534   -4.2327    4.6006 H         1 <0>         0.0872
     36 H16         1.2617   -6.4914    3.7031 H         1 <0>         0.1345
     37 H17         2.7945   -6.4656    2.7986 H         1 <0>         0.1331
     38 H18         3.9414   -6.2515    4.8783 H         1 <0>         0.4364
     39 H19         3.4498   -8.4198    3.9414 H         1 <0>         0.1557
     40 H20         0.8417   -8.0997    4.4134 H         1 <0>         0.1583
     41 H21         2.0006  -11.4118    6.5404 H         1 <0>         0.0871
     42 H22         3.8400  -10.5648    5.2172 H         1 <0>         0.0903
     43 H23         3.5429   -8.0795    6.9683 H         1 <0>         0.0962
     44 H24         5.8338   -8.5832    6.5062 H         1 <0>         0.4154
     45 H25         4.4751  -11.5613    7.3025 H         1 <0>         0.3995
     46 H26         1.1642  -10.0773    8.3291 H         1 <0>         0.3888
     47 H27        -0.2696  -11.0272    5.4223 H         1 <0>         0.0764
     48 H28        -0.5864   -9.8991    6.7622 H         1 <0>         0.0742
     49 H29        -1.8662   -9.3557    4.8199 H         1 <0>         0.4000
     50 H30         2.5225   -6.2753    5.7156 H         1 <0>         0.4271
@<TRIPOS>BOND
     1    1    2 1
     2    1   21 1
     3    1   22 1
     4    1   23 1
     5    2    3 1
     6    2   24 1
     7    2   25 1
     8    3    4 1
     9    3   26 1
    10    3   27 1
    11    4    5 1
    12    4   28 1
    13    4   29 1
    14    5    6 1
    15    5   30 1
    16    5   31 1
    17    6    7 1
    18    6   32 1
    19    6   33 1
    20    7    8 1
    21    7   34 1
    22    7   35 1
    23    8    9 1
    24    8   36 1
    25    8   37 1
    26    9   10 1
    27    9   38 1
    28    9   50 1
    29   10   15 1
    30   10   11 1
    31   10   39 1
    32   11   12 2
    33   11   40 1
    34   12   13 1
    35   12   19 1
    36   13   14 1
    37   13   18 1
    38   13   41 1
    39   14   15 1
    40   14   17 1
    41   14   42 1
    42   15   16 1
    43   15   43 1
    44   16   44 1
    45   17   45 1
    46   18   46 1
    47   19   20 1
    48   19   47 1
    49   19   48 1
    50   20   49 1
@<TRIPOS>MOLECULE
CHEMBL422734__8
   50    50     0     0     0
SMALL
USER_CHARGES

@<TRIPOS>ATOM
      1 C1         -0.0187    1.5258    0.0104 C.3       1 <0>        -0.1562
      2 C2          0.0021   -0.0041    0.0020 C.3       1 <0>        -0.1264
      3 C3          0.7421   -0.5109    1.2415 C.3       1 <0>        -0.1220
      4 C4          0.7628   -2.0407    1.2331 C.3       1 <0>        -0.1221
      5 C5          1.5028   -2.5476    2.4727 C.3       1 <0>        -0.1214
      6 C6          1.5236   -4.0774    2.4642 C.3       1 <0>        -0.1176
      7 C7          2.2636   -4.5842    3.7038 C.3       1 <0>        -0.1482
      8 C8          2.2843   -6.1141    3.6954 C.3       1 <0>        -0.0139
      9 N1          2.9948   -6.6007    4.8855 N.4       1 <0>        -0.5005
     10 C9          3.0147   -8.0696    4.8774 C.3       1 <0>         0.0797
     11 C10         3.8083   -8.5498    3.6977 C.2       1 <0>        -0.1892
     12 C11         4.6606   -9.5229    3.7446 C.2       1 <0>        -0.0913
     13 C12         4.9821  -10.2998    4.9875 C.3       1 <0>         0.0976
     14 C13         3.8938  -10.0827    6.0411 C.3       1 <0>         0.0945
     15 C14         3.6441   -8.5754    6.1772 C.3       1 <0>         0.0958
     16 O1          2.7540   -8.3325    7.2683 O.3       1 <0>        -0.5633
     17 O2          4.3269  -10.6129    7.2954 O.3       1 <0>        -0.5445
     18 O3          6.2391   -9.8623    5.5078 O.3       1 <0>        -0.5387
     19 C15         5.3748   -9.8985    2.4719 C.3       1 <0>         0.0965
     20 O4          4.9352   -9.0489    1.4103 O.3       1 <0>        -0.5747
     21 H1          1.0039    1.9031    0.0027 H         1 <0>         0.0542
     22 H2         -0.5459    1.8868   -0.8726 H         1 <0>         0.0564
     23 H3         -0.5289    1.8773    0.9072 H         1 <0>         0.0543
     24 H4         -1.0205   -0.3814    0.0098 H         1 <0>         0.0612
     25 H5          0.5123   -0.3556   -0.8948 H         1 <0>         0.0611
     26 H6          1.7647   -0.1336    1.2338 H         1 <0>         0.0618
     27 H7          0.2319   -0.1594    2.1383 H         1 <0>         0.0620
     28 H8         -0.2598   -2.4180    1.2409 H         1 <0>         0.0636
     29 H9          1.2730   -2.3923    0.3363 H         1 <0>         0.0634
     30 H10         2.5254   -2.1703    2.4649 H         1 <0>         0.0658
     31 H11         0.9926   -2.1961    3.3695 H         1 <0>         0.0661
     32 H12         0.5010   -4.4547    2.4720 H         1 <0>         0.0740
     33 H13         2.0337   -4.4289    1.5675 H         1 <0>         0.0740
     34 H14         3.2861   -4.2070    3.6960 H         1 <0>         0.0872
     35 H15         1.7534   -4.2327    4.6006 H         1 <0>         0.0880
     36 H16         1.2617   -6.4914    3.7031 H         1 <0>         0.1331
     37 H17         2.7945   -6.4656    2.7986 H         1 <0>         0.1345
     38 H18         3.9414   -6.2515    4.8783 H         1 <0>         0.4272
     39 H19         1.9941   -8.4443    4.8004 H         1 <0>         0.1557
     40 H20         3.6586   -8.0528    2.7506 H         1 <0>         0.1583
     41 H21         5.0434  -11.3607    4.7448 H         1 <0>         0.0872
     42 H22         2.9757  -10.5793    5.7273 H         1 <0>         0.0903
     43 H23         4.5898   -8.0619    6.3505 H         1 <0>         0.0962
     44 H24         3.0912   -8.6293    8.1246 H         1 <0>         0.4154
     45 H25         4.5187  -11.5605    7.2767 H         1 <0>         0.3995
     46 H26         6.9797   -9.9795    4.8972 H         1 <0>         0.3888
     47 H27         6.4496   -9.7808    2.6101 H         1 <0>         0.0742
     48 H28         5.1520  -10.9360    2.2228 H         1 <0>         0.0764
     49 H29         5.3544   -9.2343    0.5589 H         1 <0>         0.4000
     50 H30         2.5225   -6.2753    5.7156 H         1 <0>         0.4364
@<TRIPOS>BOND
     1    1    2 1
     2    1   21 1
     3    1   22 1
     4    1   23 1
     5    2    3 1
     6    2   24 1
     7    2   25 1
     8    3    4 1
     9    3   26 1
    10    3   27 1
    11    4    5 1
    12    4   28 1
    13    4   29 1
    14    5    6 1
    15    5   30 1
    16    5   31 1
    17    6    7 1
    18    6   32 1
    19    6   33 1
    20    7    8 1
    21    7   34 1
    22    7   35 1
    23    8    9 1
    24    8   36 1
    25    8   37 1
    26    9   10 1
    27    9   38 1
    28    9   50 1
    29   10   15 1
    30   10   11 1
    31   10   39 1
    32   11   12 2
    33   11   40 1
    34   12   13 1
    35   12   19 1
    36   13   14 1
    37   13   18 1
    38   13   41 1
    39   14   15 1
    40   14   17 1
    41   14   42 1
    42   15   16 1
    43   15   43 1
    44   16   44 1
    45   17   45 1
    46   18   46 1
    47   19   20 1
    48   19   47 1
    49   19   48 1
    50   20   49 1
@<TRIPOS>MOLECULE
CHEMBL422734__9
   50    50     0     0     0
SMALL
USER_CHARGES

@<TRIPOS>ATOM
      1 C1         -0.0187    1.5258    0.0104 C.3       1 <0>        -0.1562
      2 C2          0.0021   -0.0041    0.0020 C.3       1 <0>        -0.1263
      3 C3          0.7421   -0.5109    1.2415 C.3       1 <0>        -0.1220
      4 C4          0.7628   -2.0407    1.2331 C.3       1 <0>        -0.1221
      5 C5          1.5028   -2.5476    2.4727 C.3       1 <0>        -0.1215
      6 C6          1.5236   -4.0774    2.4642 C.3       1 <0>        -0.1175
      7 C7          2.2636   -4.5842    3.7038 C.3       1 <0>        -0.1478
      8 C8          2.2843   -6.1141    3.6954 C.3       1 <0>        -0.0146
      9 N1          2.9948   -6.6007    4.8855 N.4       1 <0>        -0.4971
     10 C9          3.0147   -8.0696    4.8774 C.3       1 <0>         0.0817
     11 C10         3.8083   -8.5498    3.6977 C.2       1 <0>        -0.1889
     12 C11         4.6606   -9.5229    3.7446 C.2       1 <0>        -0.0847
     13 C12         4.9821  -10.2998    4.9875 C.3       1 <0>         0.1076
     14 C13         3.8938  -10.0827    6.0411 C.3       1 <0>         0.0883
     15 C14         3.6441   -8.5754    6.1772 C.3       1 <0>         0.0949
     16 O1          4.8839   -7.9022    6.4044 O.3       1 <0>        -0.5529
     17 O2          4.3269  -10.6129    7.2954 O.3       1 <0>        -0.5453
     18 O3          6.2391   -9.8623    5.5078 O.3       1 <0>        -0.5289
     19 C15         5.3748   -9.8985    2.4719 C.3       1 <0>         0.0967
     20 O4          4.9352   -9.0489    1.4103 O.3       1 <0>        -0.5747
     21 H1          1.0039    1.9031    0.0027 H         1 <0>         0.0542
     22 H2         -0.5459    1.8868   -0.8726 H         1 <0>         0.0564
     23 H3         -0.5289    1.8773    0.9072 H         1 <0>         0.0542
     24 H4         -1.0205   -0.3814    0.0098 H         1 <0>         0.0611
     25 H5          0.5123   -0.3556   -0.8948 H         1 <0>         0.0611
     26 H6          1.7647   -0.1336    1.2338 H         1 <0>         0.0620
     27 H7          0.2319   -0.1594    2.1383 H         1 <0>         0.0619
     28 H8         -0.2598   -2.4180    1.2409 H         1 <0>         0.0634
     29 H9          1.2730   -2.3923    0.3363 H         1 <0>         0.0635
     30 H10         2.5254   -2.1703    2.4649 H         1 <0>         0.0660
     31 H11         0.9926   -2.1961    3.3695 H         1 <0>         0.0659
     32 H12         0.5010   -4.4547    2.4720 H         1 <0>         0.0736
     33 H13         2.0337   -4.4289    1.5675 H         1 <0>         0.0739
     34 H14         3.2861   -4.2070    3.6960 H         1 <0>         0.0874
     35 H15         1.7534   -4.2327    4.6006 H         1 <0>         0.0872
     36 H16         1.2617   -6.4914    3.7031 H         1 <0>         0.1316
     37 H17         2.7945   -6.4656    2.7986 H         1 <0>         0.1341
     38 H18         3.9414   -6.2515    4.8783 H         1 <0>         0.4369
     39 H19         1.9941   -8.4443    4.8004 H         1 <0>         0.1556
     40 H20         3.6586   -8.0528    2.7506 H         1 <0>         0.1512
     41 H21         5.0434  -11.3607    4.7448 H         1 <0>         0.0785
     42 H22         2.9757  -10.5793    5.7273 H         1 <0>         0.0882
     43 H23         2.9651   -8.3901    7.0095 H         1 <0>         0.0940
     44 H24         5.3374   -8.1755    7.2135 H         1 <0>         0.4145
     45 H25         4.5187  -11.5605    7.2767 H         1 <0>         0.3981
     46 H26         6.9797   -9.9795    4.8972 H         1 <0>         0.3839
     47 H27         6.4496   -9.7808    2.6101 H         1 <0>         0.0725
     48 H28         5.1520  -10.9360    2.2228 H         1 <0>         0.0735
     49 H29         5.3544   -9.2343    0.5589 H         1 <0>         0.3984
     50 H30         2.5225   -6.2753    5.7156 H         1 <0>         0.4286
@<TRIPOS>BOND
     1    1    2 1
     2    1   21 1
     3    1   22 1
     4    1   23 1
     5    2    3 1
     6    2   24 1
     7    2   25 1
     8    3    4 1
     9    3   26 1
    10    3   27 1
    11    4    5 1
    12    4   28 1
    13    4   29 1
    14    5    6 1
    15    5   30 1
    16    5   31 1
    17    6    7 1
    18    6   32 1
    19    6   33 1
    20    7    8 1
    21    7   34 1
    22    7   35 1
    23    8    9 1
    24    8   36 1
    25    8   37 1
    26    9   10 1
    27    9   38 1
    28    9   50 1
    29   10   15 1
    30   10   11 1
    31   10   39 1
    32   11   12 2
    33   11   40 1
    34   12   13 1
    35   12   19 1
    36   13   14 1
    37   13   18 1
    38   13   41 1
    39   14   15 1
    40   14   17 1
    41   14   42 1
    42   15   16 1
    43   15   43 1
    44   16   44 1
    45   17   45 1
    46   18   46 1
    47   19   20 1
    48   19   47 1
    49   19   48 1
    50   20   49 1
@<TRIPOS>MOLECULE
CHEMBL422734__10
   50    50     0     0     0
SMALL
USER_CHARGES

@<TRIPOS>ATOM
      1 C1         -0.0187    1.5258    0.0104 C.3       1 <0>        -0.1562
      2 C2          0.0021   -0.0041    0.0020 C.3       1 <0>        -0.1264
      3 C3          0.7421   -0.5109    1.2415 C.3       1 <0>        -0.1219
      4 C4          0.7628   -2.0407    1.2331 C.3       1 <0>        -0.1223
      5 C5          1.5028   -2.5476    2.4727 C.3       1 <0>        -0.1213
      6 C6          1.5236   -4.0774    2.4642 C.3       1 <0>        -0.1177
      7 C7          2.2636   -4.5842    3.7038 C.3       1 <0>        -0.1488
      8 C8          2.2843   -6.1141    3.6954 C.3       1 <0>        -0.0101
      9 N1          2.9948   -6.6007    4.8855 N.4       1 <0>        -0.5038
     10 C9          3.0147   -8.0696    4.8774 C.3       1 <0>         0.0742
     11 C10         3.8083   -8.5498    3.6977 C.2       1 <0>        -0.1941
     12 C11         5.0183   -9.0031    3.7736 C.2       1 <0>        -0.0767
     13 C12         5.7930   -9.1217    5.0534 C.3       1 <0>         0.1013
     14 C13         5.1456   -8.2639    6.1428 C.3       1 <0>         0.0790
     15 C14         3.6441   -8.5754    6.1772 C.3       1 <0>         0.1015
     16 O1          3.4491   -9.9868    6.2878 O.3       1 <0>        -0.5378
     17 O2          5.7297   -8.5748    7.4094 O.3       1 <0>        -0.5493
     18 O3          7.1348   -8.6798    4.8376 O.3       1 <0>        -0.5560
     19 C15         5.6908   -9.4394    2.4975 C.3       1 <0>         0.0926
     20 O4          4.7966   -9.2502    1.3991 O.3       1 <0>        -0.5709
     21 H1          1.0039    1.9031    0.0027 H         1 <0>         0.0541
     22 H2         -0.5459    1.8868   -0.8726 H         1 <0>         0.0565
     23 H3         -0.5289    1.8773    0.9072 H         1 <0>         0.0542
     24 H4         -1.0205   -0.3814    0.0098 H         1 <0>         0.0613
     25 H5          0.5123   -0.3556   -0.8948 H         1 <0>         0.0612
     26 H6          1.7647   -0.1336    1.2338 H         1 <0>         0.0618
     27 H7          0.2319   -0.1594    2.1383 H         1 <0>         0.0619
     28 H8         -0.2598   -2.4180    1.2409 H         1 <0>         0.0638
     29 H9          1.2730   -2.3923    0.3363 H         1 <0>         0.0636
     30 H10         2.5254   -2.1703    2.4649 H         1 <0>         0.0657
     31 H11         0.9926   -2.1961    3.3695 H         1 <0>         0.0660
     32 H12         0.5010   -4.4547    2.4720 H         1 <0>         0.0747
     33 H13         2.0337   -4.4289    1.5675 H         1 <0>         0.0745
     34 H14         3.2861   -4.2070    3.6960 H         1 <0>         0.0866
     35 H15         1.7534   -4.2327    4.6006 H         1 <0>         0.0880
     36 H16         1.2617   -6.4914    3.7031 H         1 <0>         0.1353
     37 H17         2.7945   -6.4656    2.7986 H         1 <0>         0.1365
     38 H18         3.9414   -6.2515    4.8783 H         1 <0>         0.4241
     39 H19         1.9941   -8.4443    4.8004 H         1 <0>         0.1630
     40 H20         3.3405   -8.5154    2.7248 H         1 <0>         0.1556
     41 H21         5.8050  -10.1636    5.3733 H         1 <0>         0.1011
     42 H22         5.2958   -7.2085    5.9157 H         1 <0>         0.0680
     43 H23         3.1846   -8.0712    7.0273 H         1 <0>         0.0968
     44 H24         3.8243  -10.3739    7.0906 H         1 <0>         0.4102
     45 H25         6.6827   -8.4165    7.4525 H         1 <0>         0.4054
     46 H26         7.6122   -9.1858    4.1659 H         1 <0>         0.3942
     47 H27         6.5910   -8.8454    2.3397 H         1 <0>         0.0766
     48 H28         5.9592  -10.4934    2.5702 H         1 <0>         0.0756
     49 H29         5.1641   -9.5108    0.5434 H         1 <0>         0.3992
     50 H30         2.5225   -6.2753    5.7156 H         1 <0>         0.4291
@<TRIPOS>BOND
     1    1    2 1
     2    1   21 1
     3    1   22 1
     4    1   23 1
     5    2    3 1
     6    2   24 1
     7    2   25 1
     8    3    4 1
     9    3   26 1
    10    3   27 1
    11    4    5 1
    12    4   28 1
    13    4   29 1
    14    5    6 1
    15    5   30 1
    16    5   31 1
    17    6    7 1
    18    6   32 1
    19    6   33 1
    20    7    8 1
    21    7   34 1
    22    7   35 1
    23    8    9 1
    24    8   36 1
    25    8   37 1
    26    9   10 1
    27    9   38 1
    28    9   50 1
    29   10   15 1
    30   10   11 1
    31   10   39 1
    32   11   12 2
    33   11   40 1
    34   12   13 1
    35   12   19 1
    36   13   14 1
    37   13   18 1
    38   13   41 1
    39   14   15 1
    40   14   17 1
    41   14   42 1
    42   15   16 1
    43   15   43 1
    44   16   44 1
    45   17   45 1
    46   18   46 1
    47   19   20 1
    48   19   47 1
    49   19   48 1
    50   20   49 1
@<TRIPOS>MOLECULE
CHEMBL422734__11
   50    50     0     0     0
SMALL
USER_CHARGES

@<TRIPOS>ATOM
      1 C1         -0.0187    1.5258    0.0104 C.3       1 <0>        -0.1561
      2 C2          0.0021   -0.0041    0.0020 C.3       1 <0>        -0.1264
      3 C3          0.7421   -0.5109    1.2415 C.3       1 <0>        -0.1219
      4 C4          0.7628   -2.0407    1.2331 C.3       1 <0>        -0.1222
      5 C5          1.5028   -2.5476    2.4727 C.3       1 <0>        -0.1212
      6 C6          1.5236   -4.0774    2.4642 C.3       1 <0>        -0.1178
      7 C7          2.2636   -4.5842    3.7038 C.3       1 <0>        -0.1474
      8 C8          2.2843   -6.1141    3.6954 C.3       1 <0>        -0.0145
      9 N1          2.9948   -6.6007    4.8855 N.4       1 <0>        -0.4999
     10 C9          3.0147   -8.0696    4.8774 C.3       1 <0>         0.0855
     11 C10         3.8083   -8.5498    3.6977 C.2       1 <0>        -0.1756
     12 C11         4.6606   -9.5229    3.7446 C.2       1 <0>        -0.0893
     13 C12         4.9814  -10.3005    4.9873 C.3       1 <0>         0.1100
     14 C13         3.8930  -10.0830    6.0408 C.3       1 <0>         0.0857
     15 C14         3.6441   -8.5754    6.1772 C.3       1 <0>         0.0972
     16 O1          4.8839   -7.9022    6.4044 O.3       1 <0>        -0.5478
     17 O2          2.6890  -10.7332    5.6289 O.3       1 <0>        -0.5522
     18 O3          6.2385   -9.8639    5.5080 O.3       1 <0>        -0.5396
     19 C15         5.3748   -9.8985    2.4719 C.3       1 <0>         0.0976
     20 O4          4.9352   -9.0489    1.4103 O.3       1 <0>        -0.5743
     21 H1          1.0039    1.9031    0.0027 H         1 <0>         0.0542
     22 H2         -0.5459    1.8868   -0.8726 H         1 <0>         0.0563
     23 H3         -0.5289    1.8773    0.9072 H         1 <0>         0.0542
     24 H4         -1.0205   -0.3814    0.0098 H         1 <0>         0.0612
     25 H5          0.5123   -0.3556   -0.8948 H         1 <0>         0.0611
     26 H6          1.7647   -0.1336    1.2338 H         1 <0>         0.0619
     27 H7          0.2319   -0.1594    2.1383 H         1 <0>         0.0619
     28 H8         -0.2598   -2.4180    1.2409 H         1 <0>         0.0635
     29 H9          1.2730   -2.3923    0.3363 H         1 <0>         0.0635
     30 H10         2.5254   -2.1703    2.4649 H         1 <0>         0.0658
     31 H11         0.9926   -2.1961    3.3695 H         1 <0>         0.0658
     32 H12         0.5010   -4.4547    2.4720 H         1 <0>         0.0736
     33 H13         2.0337   -4.4289    1.5675 H         1 <0>         0.0737
     34 H14         3.2861   -4.2070    3.6960 H         1 <0>         0.0868
     35 H15         1.7534   -4.2327    4.6006 H         1 <0>         0.0867
     36 H16         1.2617   -6.4914    3.7031 H         1 <0>         0.1312
     37 H17         2.7945   -6.4656    2.7986 H         1 <0>         0.1332
     38 H18         3.9414   -6.2515    4.8783 H         1 <0>         0.4344
     39 H19         1.9941   -8.4443    4.8004 H         1 <0>         0.1600
     40 H20         3.6586   -8.0528    2.7506 H         1 <0>         0.1479
     41 H21         5.0421  -11.3613    4.7442 H         1 <0>         0.0787
     42 H22         4.2230  -10.4880    6.9975 H         1 <0>         0.0940
     43 H23         2.9651   -8.3901    7.0095 H         1 <0>         0.0947
     44 H24         5.3374   -8.1755    7.2135 H         1 <0>         0.4100
     45 H25         2.7796  -11.6883    5.5074 H         1 <0>         0.3998
     46 H26         6.9792   -9.9814    4.8975 H         1 <0>         0.3898
     47 H27         6.4496   -9.7808    2.6101 H         1 <0>         0.0701
     48 H28         5.1520  -10.9360    2.2228 H         1 <0>         0.0716
     49 H29         5.3544   -9.2343    0.5589 H         1 <0>         0.3975
     50 H30         2.5225   -6.2753    5.7156 H         1 <0>         0.4272
@<TRIPOS>BOND
     1    1    2 1
     2    1   21 1
     3    1   22 1
     4    1   23 1
     5    2    3 1
     6    2   24 1
     7    2   25 1
     8    3    4 1
     9    3   26 1
    10    3   27 1
    11    4    5 1
    12    4   28 1
    13    4   29 1
    14    5    6 1
    15    5   30 1
    16    5   31 1
    17    6    7 1
    18    6   32 1
    19    6   33 1
    20    7    8 1
    21    7   34 1
    22    7   35 1
    23    8    9 1
    24    8   36 1
    25    8   37 1
    26    9   10 1
    27    9   38 1
    28    9   50 1
    29   10   15 1
    30   10   11 1
    31   10   39 1
    32   11   12 2
    33   11   40 1
    34   12   13 1
    35   12   19 1
    36   13   14 1
    37   13   18 1
    38   13   41 1
    39   14   15 1
    40   14   17 1
    41   14   42 1
    42   15   16 1
    43   15   43 1
    44   16   44 1
    45   17   45 1
    46   18   46 1
    47   19   20 1
    48   19   47 1
    49   19   48 1
    50   20   49 1
@<TRIPOS>MOLECULE
CHEMBL422734__12
   50    50     0     0     0
SMALL
USER_CHARGES

@<TRIPOS>ATOM
      1 C1         -0.0187    1.5258    0.0104 C.3       1 <0>        -0.1562
      2 C2          0.0021   -0.0041    0.0020 C.3       1 <0>        -0.1264
      3 C3          0.7421   -0.5109    1.2415 C.3       1 <0>        -0.1219
      4 C4          0.7628   -2.0407    1.2331 C.3       1 <0>        -0.1222
      5 C5          1.5028   -2.5476    2.4727 C.3       1 <0>        -0.1213
      6 C6          1.5236   -4.0774    2.4642 C.3       1 <0>        -0.1178
      7 C7          2.2636   -4.5842    3.7038 C.3       1 <0>        -0.1480
      8 C8          2.2843   -6.1141    3.6954 C.3       1 <0>        -0.0139
      9 N1          2.9948   -6.6007    4.8855 N.4       1 <0>        -0.5009
     10 C9          3.0147   -8.0696    4.8774 C.3       1 <0>         0.0808
     11 C10         3.8083   -8.5498    3.6977 C.2       1 <0>        -0.2010
     12 C11         4.6606   -9.5229    3.7446 C.2       1 <0>        -0.0848
     13 C12         4.9814  -10.3005    4.9873 C.3       1 <0>         0.0990
     14 C13         3.8930  -10.0830    6.0408 C.3       1 <0>         0.0943
     15 C14         3.6441   -8.5754    6.1772 C.3       1 <0>         0.0982
     16 O1          2.7540   -8.3325    7.2683 O.3       1 <0>        -0.5577
     17 O2          4.3256  -10.6140    7.2950 O.3       1 <0>        -0.5545
     18 O3          5.0609  -11.6912    4.6686 O.3       1 <0>        -0.5493
     19 C15         5.3748   -9.8985    2.4719 C.3       1 <0>         0.0933
     20 O4          4.9352   -9.0489    1.4103 O.3       1 <0>        -0.5734
     21 H1          1.0039    1.9031    0.0027 H         1 <0>         0.0541
     22 H2         -0.5459    1.8868   -0.8726 H         1 <0>         0.0564
     23 H3         -0.5289    1.8773    0.9072 H         1 <0>         0.0543
     24 H4         -1.0205   -0.3814    0.0098 H         1 <0>         0.0613
     25 H5          0.5123   -0.3556   -0.8948 H         1 <0>         0.0611
     26 H6          1.7647   -0.1336    1.2338 H         1 <0>         0.0618
     27 H7          0.2319   -0.1594    2.1383 H         1 <0>         0.0620
     28 H8         -0.2598   -2.4180    1.2409 H         1 <0>         0.0637
     29 H9          1.2730   -2.3923    0.3363 H         1 <0>         0.0635
     30 H10         2.5254   -2.1703    2.4649 H         1 <0>         0.0657
     31 H11         0.9926   -2.1961    3.3695 H         1 <0>         0.0661
     32 H12         0.5010   -4.4547    2.4720 H         1 <0>         0.0742
     33 H13         2.0337   -4.4289    1.5675 H         1 <0>         0.0741
     34 H14         3.2861   -4.2070    3.6960 H         1 <0>         0.0871
     35 H15         1.7534   -4.2327    4.6006 H         1 <0>         0.0879
     36 H16         1.2617   -6.4914    3.7031 H         1 <0>         0.1334
     37 H17         2.7945   -6.4656    2.7986 H         1 <0>         0.1350
     38 H18         3.9414   -6.2515    4.8783 H         1 <0>         0.4263
     39 H19         1.9941   -8.4443    4.8004 H         1 <0>         0.1571
     40 H20         3.6586   -8.0528    2.7506 H         1 <0>         0.1594
     41 H21         5.9403   -9.9675    5.3844 H         1 <0>         0.0937
     42 H22         2.9747  -10.5790    5.7266 H         1 <0>         0.0877
     43 H23         4.5898   -8.0619    6.3505 H         1 <0>         0.0901
     44 H24         3.0912   -8.6293    8.1246 H         1 <0>         0.4162
     45 H25         4.5168  -11.5617    7.2760 H         1 <0>         0.4071
     46 H26         5.7387  -11.9064    4.0132 H         1 <0>         0.3928
     47 H27         6.4496   -9.7808    2.6101 H         1 <0>         0.0762
     48 H28         5.1520  -10.9360    2.2228 H         1 <0>         0.0789
     49 H29         5.3544   -9.2343    0.5589 H         1 <0>         0.4003
     50 H30         2.5225   -6.2753    5.7156 H         1 <0>         0.4364
@<TRIPOS>BOND
     1    1    2 1
     2    1   21 1
     3    1   22 1
     4    1   23 1
     5    2    3 1
     6    2   24 1
     7    2   25 1
     8    3    4 1
     9    3   26 1
    10    3   27 1
    11    4    5 1
    12    4   28 1
    13    4   29 1
    14    5    6 1
    15    5   30 1
    16    5   31 1
    17    6    7 1
    18    6   32 1
    19    6   33 1
    20    7    8 1
    21    7   34 1
    22    7   35 1
    23    8    9 1
    24    8   36 1
    25    8   37 1
    26    9   10 1
    27    9   38 1
    28    9   50 1
    29   10   15 1
    30   10   11 1
    31   10   39 1
    32   11   12 2
    33   11   40 1
    34   12   13 1
    35   12   19 1
    36   13   14 1
    37   13   18 1
    38   13   41 1
    39   14   15 1
    40   14   17 1
    41   14   42 1
    42   15   16 1
    43   15   43 1
    44   16   44 1
    45   17   45 1
    46   18   46 1
    47   19   20 1
    48   19   47 1
    49   19   48 1
    50   20   49 1
@<TRIPOS>MOLECULE
CHEMBL422734__13
   50    50     0     0     0
SMALL
USER_CHARGES

@<TRIPOS>ATOM
      1 C1         -0.0187    1.5258    0.0104 C.3       1 <0>        -0.1562
      2 C2          0.0021   -0.0041    0.0020 C.3       1 <0>        -0.1264
      3 C3          0.7421   -0.5109    1.2415 C.3       1 <0>        -0.1219
      4 C4          0.7628   -2.0407    1.2331 C.3       1 <0>        -0.1222
      5 C5          1.5028   -2.5476    2.4727 C.3       1 <0>        -0.1214
      6 C6          1.5236   -4.0774    2.4642 C.3       1 <0>        -0.1178
      7 C7          2.2636   -4.5842    3.7038 C.3       1 <0>        -0.1477
      8 C8          2.2843   -6.1141    3.6954 C.3       1 <0>        -0.0148
      9 N1          2.9948   -6.6007    4.8855 N.4       1 <0>        -0.4978
     10 C9          3.0147   -8.0696    4.8774 C.3       1 <0>         0.0830
     11 C10         3.8083   -8.5498    3.6977 C.2       1 <0>        -0.2013
     12 C11         4.6606   -9.5229    3.7446 C.2       1 <0>        -0.0769
     13 C12         4.9821  -10.2998    4.9875 C.3       1 <0>         0.1045
     14 C13         3.8938  -10.0827    6.0411 C.3       1 <0>         0.0919
     15 C14         3.6441   -8.5754    6.1772 C.3       1 <0>         0.0955
     16 O1          4.8839   -7.9022    6.4044 O.3       1 <0>        -0.5666
     17 O2          4.3269  -10.6129    7.2954 O.3       1 <0>        -0.5549
     18 O3          5.0625  -11.6906    4.6692 O.3       1 <0>        -0.5542
     19 C15         5.3748   -9.8985    2.4719 C.3       1 <0>         0.0935
     20 O4          4.9352   -9.0489    1.4103 O.3       1 <0>        -0.5733
     21 H1          1.0039    1.9031    0.0027 H         1 <0>         0.0542
     22 H2         -0.5459    1.8868   -0.8726 H         1 <0>         0.0564
     23 H3         -0.5289    1.8773    0.9072 H         1 <0>         0.0542
     24 H4         -1.0205   -0.3814    0.0098 H         1 <0>         0.0612
     25 H5          0.5123   -0.3556   -0.8948 H         1 <0>         0.0612
     26 H6          1.7647   -0.1336    1.2338 H         1 <0>         0.0619
     27 H7          0.2319   -0.1594    2.1383 H         1 <0>         0.0619
     28 H8         -0.2598   -2.4180    1.2409 H         1 <0>         0.0635
     29 H9          1.2730   -2.3923    0.3363 H         1 <0>         0.0635
     30 H10         2.5254   -2.1703    2.4649 H         1 <0>         0.0659
     31 H11         0.9926   -2.1961    3.3695 H         1 <0>         0.0659
     32 H12         0.5010   -4.4547    2.4720 H         1 <0>         0.0738
     33 H13         2.0337   -4.4289    1.5675 H         1 <0>         0.0740
     34 H14         3.2861   -4.2070    3.6960 H         1 <0>         0.0874
     35 H15         1.7534   -4.2327    4.6006 H         1 <0>         0.0872
     36 H16         1.2617   -6.4914    3.7031 H         1 <0>         0.1322
     37 H17         2.7945   -6.4656    2.7986 H         1 <0>         0.1348
     38 H18         3.9414   -6.2515    4.8783 H         1 <0>         0.4361
     39 H19         1.9941   -8.4443    4.8004 H         1 <0>         0.1584
     40 H20         3.6586   -8.0528    2.7506 H         1 <0>         0.1531
     41 H21         5.9409   -9.9661    5.3844 H         1 <0>         0.0954
     42 H22         2.9757  -10.5793    5.7273 H         1 <0>         0.0870
     43 H23         2.9651   -8.3901    7.0095 H         1 <0>         0.1034
     44 H24         5.3374   -8.1755    7.2135 H         1 <0>         0.4155
     45 H25         4.5187  -11.5605    7.2767 H         1 <0>         0.4059
     46 H26         5.7402  -11.9056    4.0138 H         1 <0>         0.3918
     47 H27         6.4496   -9.7808    2.6101 H         1 <0>         0.0746
     48 H28         5.1520  -10.9360    2.2228 H         1 <0>         0.0767
     49 H29         5.3544   -9.2343    0.5589 H         1 <0>         0.3989
     50 H30         2.5225   -6.2753    5.7156 H         1 <0>         0.4288
@<TRIPOS>BOND
     1    1    2 1
     2    1   21 1
     3    1   22 1
     4    1   23 1
     5    2    3 1
     6    2   24 1
     7    2   25 1
     8    3    4 1
     9    3   26 1
    10    3   27 1
    11    4    5 1
    12    4   28 1
    13    4   29 1
    14    5    6 1
    15    5   30 1
    16    5   31 1
    17    6    7 1
    18    6   32 1
    19    6   33 1
    20    7    8 1
    21    7   34 1
    22    7   35 1
    23    8    9 1
    24    8   36 1
    25    8   37 1
    26    9   10 1
    27    9   38 1
    28    9   50 1
    29   10   15 1
    30   10   11 1
    31   10   39 1
    32   11   12 2
    33   11   40 1
    34   12   13 1
    35   12   19 1
    36   13   14 1
    37   13   18 1
    38   13   41 1
    39   14   15 1
    40   14   17 1
    41   14   42 1
    42   15   16 1
    43   15   43 1
    44   16   44 1
    45   17   45 1
    46   18   46 1
    47   19   20 1
    48   19   47 1
    49   19   48 1
    50   20   49 1
@<TRIPOS>MOLECULE
CHEMBL422734__14
   50    50     0     0     0
SMALL
USER_CHARGES

@<TRIPOS>ATOM
      1 C1         -0.0187    1.5258    0.0104 C.3       1 <0>        -0.1561
      2 C2          0.0021   -0.0041    0.0020 C.3       1 <0>        -0.1265
      3 C3          0.7421   -0.5109    1.2415 C.3       1 <0>        -0.1218
      4 C4          0.7628   -2.0407    1.2331 C.3       1 <0>        -0.1223
      5 C5          1.5028   -2.5476    2.4727 C.3       1 <0>        -0.1211
      6 C6          1.5236   -4.0774    2.4642 C.3       1 <0>        -0.1181
      7 C7          2.2636   -4.5842    3.7038 C.3       1 <0>        -0.1476
      8 C8          2.2843   -6.1141    3.6954 C.3       1 <0>        -0.0134
      9 N1          2.9948   -6.6007    4.8855 N.4       1 <0>        -0.5038
     10 C9          3.0147   -8.0696    4.8774 C.3       1 <0>         0.0840
     11 C10         3.8083   -8.5498    3.6977 C.2       1 <0>        -0.1881
     12 C11         4.6606   -9.5229    3.7446 C.2       1 <0>        -0.0892
     13 C12         4.9821  -10.2998    4.9875 C.3       1 <0>         0.1004
     14 C13         3.8938  -10.0827    6.0411 C.3       1 <0>         0.0928
     15 C14         3.6441   -8.5754    6.1772 C.3       1 <0>         0.0968
     16 O1          2.7540   -8.3325    7.2683 O.3       1 <0>        -0.5541
     17 O2          2.6901  -10.7338    5.6297 O.3       1 <0>        -0.5478
     18 O3          5.0625  -11.6906    4.6692 O.3       1 <0>        -0.5494
     19 C15         5.3748   -9.8985    2.4719 C.3       1 <0>         0.0943
     20 O4          4.9352   -9.0489    1.4103 O.3       1 <0>        -0.5733
     21 H1          1.0039    1.9031    0.0027 H         1 <0>         0.0541
     22 H2         -0.5459    1.8868   -0.8726 H         1 <0>         0.0564
     23 H3         -0.5289    1.8773    0.9072 H         1 <0>         0.0542
     24 H4         -1.0205   -0.3814    0.0098 H         1 <0>         0.0613
     25 H5          0.5123   -0.3556   -0.8948 H         1 <0>         0.0611
     26 H6          1.7647   -0.1336    1.2338 H         1 <0>         0.0617
     27 H7          0.2319   -0.1594    2.1383 H         1 <0>         0.0619
     28 H8         -0.2598   -2.4180    1.2409 H         1 <0>         0.0637
     29 H9          1.2730   -2.3923    0.3363 H         1 <0>         0.0635
     30 H10         2.5254   -2.1703    2.4649 H         1 <0>         0.0655
     31 H11         0.9926   -2.1961    3.3695 H         1 <0>         0.0659
     32 H12         0.5010   -4.4547    2.4720 H         1 <0>         0.0742
     33 H13         2.0337   -4.4289    1.5675 H         1 <0>         0.0739
     34 H14         3.2861   -4.2070    3.6960 H         1 <0>         0.0864
     35 H15         1.7534   -4.2327    4.6006 H         1 <0>         0.0873
     36 H16         1.2617   -6.4914    3.7031 H         1 <0>         0.1327
     37 H17         2.7945   -6.4656    2.7986 H         1 <0>         0.1341
     38 H18         3.9414   -6.2515    4.8783 H         1 <0>         0.4235
     39 H19         1.9941   -8.4443    4.8004 H         1 <0>         0.1619
     40 H20         3.6586   -8.0528    2.7506 H         1 <0>         0.1555
     41 H21         5.9409   -9.9661    5.3844 H         1 <0>         0.0904
     42 H22         4.2241  -10.4871    6.9979 H         1 <0>         0.0917
     43 H23         4.5898   -8.0619    6.3505 H         1 <0>         0.0959
     44 H24         3.0912   -8.6293    8.1246 H         1 <0>         0.4079
     45 H25         2.7812  -11.6888    5.5085 H         1 <0>         0.4014
     46 H26         5.7402  -11.9056    4.0138 H         1 <0>         0.3938
     47 H27         6.4496   -9.7808    2.6101 H         1 <0>         0.0735
     48 H28         5.1520  -10.9360    2.2228 H         1 <0>         0.0767
     49 H29         5.3544   -9.2343    0.5589 H         1 <0>         0.3990
     50 H30         2.5225   -6.2753    5.7156 H         1 <0>         0.4348
@<TRIPOS>BOND
     1    1    2 1
     2    1   21 1
     3    1   22 1
     4    1   23 1
     5    2    3 1
     6    2   24 1
     7    2   25 1
     8    3    4 1
     9    3   26 1
    10    3   27 1
    11    4    5 1
    12    4   28 1
    13    4   29 1
    14    5    6 1
    15    5   30 1
    16    5   31 1
    17    6    7 1
    18    6   32 1
    19    6   33 1
    20    7    8 1
    21    7   34 1
    22    7   35 1
    23    8    9 1
    24    8   36 1
    25    8   37 1
    26    9   10 1
    27    9   38 1
    28    9   50 1
    29   10   15 1
    30   10   11 1
    31   10   39 1
    32   11   12 2
    33   11   40 1
    34   12   13 1
    35   12   19 1
    36   13   14 1
    37   13   18 1
    38   13   41 1
    39   14   15 1
    40   14   17 1
    41   14   42 1
    42   15   16 1
    43   15   43 1
    44   16   44 1
    45   17   45 1
    46   18   46 1
    47   19   20 1
    48   19   47 1
    49   19   48 1
    50   20   49 1
@<TRIPOS>MOLECULE
CHEMBL422734__15
   50    50     0     0     0
SMALL
USER_CHARGES

@<TRIPOS>ATOM
      1 C1         -0.0187    1.5258    0.0104 C.3       1 <0>        -0.1561
      2 C2          0.0021   -0.0041    0.0020 C.3       1 <0>        -0.1265
      3 C3          0.7421   -0.5109    1.2415 C.3       1 <0>        -0.1218
      4 C4          0.7628   -2.0407    1.2331 C.3       1 <0>        -0.1223
      5 C5          1.5028   -2.5476    2.4727 C.3       1 <0>        -0.1211
      6 C6          1.5236   -4.0774    2.4642 C.3       1 <0>        -0.1180
      7 C7          2.2636   -4.5842    3.7038 C.3       1 <0>        -0.1473
      8 C8          2.2843   -6.1141    3.6954 C.3       1 <0>        -0.0146
      9 N1          2.9948   -6.6007    4.8855 N.4       1 <0>        -0.5007
     10 C9          3.0147   -8.0696    4.8774 C.3       1 <0>         0.0873
     11 C10         3.8083   -8.5498    3.6977 C.2       1 <0>        -0.1881
     12 C11         4.6606   -9.5229    3.7446 C.2       1 <0>        -0.0813
     13 C12         4.9821  -10.2998    4.9875 C.3       1 <0>         0.1053
     14 C13         3.8938  -10.0827    6.0411 C.3       1 <0>         0.0922
     15 C14         3.6441   -8.5754    6.1772 C.3       1 <0>         0.0940
     16 O1          4.8839   -7.9022    6.4044 O.3       1 <0>        -0.5620
     17 O2          2.6901  -10.7338    5.6297 O.3       1 <0>        -0.5543
     18 O3          5.0625  -11.6906    4.6692 O.3       1 <0>        -0.5541
     19 C15         5.3748   -9.8985    2.4719 C.3       1 <0>         0.0945
     20 O4          4.9352   -9.0489    1.4103 O.3       1 <0>        -0.5731
     21 H1          1.0039    1.9031    0.0027 H         1 <0>         0.0541
     22 H2         -0.5459    1.8868   -0.8726 H         1 <0>         0.0564
     23 H3         -0.5289    1.8773    0.9072 H         1 <0>         0.0542
     24 H4         -1.0205   -0.3814    0.0098 H         1 <0>         0.0612
     25 H5          0.5123   -0.3556   -0.8948 H         1 <0>         0.0612
     26 H6          1.7647   -0.1336    1.2338 H         1 <0>         0.0618
     27 H7          0.2319   -0.1594    2.1383 H         1 <0>         0.0618
     28 H8         -0.2598   -2.4180    1.2409 H         1 <0>         0.0636
     29 H9          1.2730   -2.3923    0.3363 H         1 <0>         0.0635
     30 H10         2.5254   -2.1703    2.4649 H         1 <0>         0.0657
     31 H11         0.9926   -2.1961    3.3695 H         1 <0>         0.0657
     32 H12         0.5010   -4.4547    2.4720 H         1 <0>         0.0738
     33 H13         2.0337   -4.4289    1.5675 H         1 <0>         0.0739
     34 H14         3.2861   -4.2070    3.6960 H         1 <0>         0.0867
     35 H15         1.7534   -4.2327    4.6006 H         1 <0>         0.0867
     36 H16         1.2617   -6.4914    3.7031 H         1 <0>         0.1317
     37 H17         2.7945   -6.4656    2.7986 H         1 <0>         0.1338
     38 H18         3.9414   -6.2515    4.8783 H         1 <0>         0.4335
     39 H19         1.9941   -8.4443    4.8004 H         1 <0>         0.1625
     40 H20         3.6586   -8.0528    2.7506 H         1 <0>         0.1491
     41 H21         5.9409   -9.9661    5.3844 H         1 <0>         0.0918
     42 H22         4.2241  -10.4871    6.9979 H         1 <0>         0.0908
     43 H23         2.9651   -8.3901    7.0095 H         1 <0>         0.1031
     44 H24         5.3374   -8.1755    7.2135 H         1 <0>         0.4108
     45 H25         2.7812  -11.6888    5.5085 H         1 <0>         0.4062
     46 H26         5.7402  -11.9056    4.0138 H         1 <0>         0.3930
     47 H27         6.4496   -9.7808    2.6101 H         1 <0>         0.0719
     48 H28         5.1520  -10.9360    2.2228 H         1 <0>         0.0745
     49 H29         5.3544   -9.2343    0.5589 H         1 <0>         0.3977
     50 H30         2.5225   -6.2753    5.7156 H         1 <0>         0.4272
@<TRIPOS>BOND
     1    1    2 1
     2    1   21 1
     3    1   22 1
     4    1   23 1
     5    2    3 1
     6    2   24 1
     7    2   25 1
     8    3    4 1
     9    3   26 1
    10    3   27 1
    11    4    5 1
    12    4   28 1
    13    4   29 1
    14    5    6 1
    15    5   30 1
    16    5   31 1
    17    6    7 1
    18    6   32 1
    19    6   33 1
    20    7    8 1
    21    7   34 1
    22    7   35 1
    23    8    9 1
    24    8   36 1
    25    8   37 1
    26    9   10 1
    27    9   38 1
    28    9   50 1
    29   10   15 1
    30   10   11 1
    31   10   39 1
    32   11   12 2
    33   11   40 1
    34   12   13 1
    35   12   19 1
    36   13   14 1
    37   13   18 1
    38   13   41 1
    39   14   15 1
    40   14   17 1
    41   14   42 1
    42   15   16 1
    43   15   43 1
    44   16   44 1
    45   17   45 1
    46   18   46 1
    47   19   20 1
    48   19   47 1
    49   19   48 1
    50   20   49 1
@<TRIPOS>MOLECULE
CHEMBL236925
   55    57     0     0     0
SMALL
USER_CHARGES

@<TRIPOS>ATOM
      1 C1         -0.3177    0.4344    1.3219 C.3       1 <0>        -0.1966
      2 C2          0.1782   -0.8859    0.7289 C.3       1 <0>         0.1135
      3 C3          1.3505   -1.4102    1.5606 C.3       1 <0>        -0.2060
      4 C4         -0.9577   -1.9109    0.7455 C.3       1 <0>        -0.1389
      5 O1          0.6072   -0.6721   -0.6173 O.3       1 <0>        -0.3120
      6 C5          1.7090    0.1042   -0.7983 C.ar      1 <0>         0.1004
      7 C6          2.2633    0.7837    0.2741 C.ar      1 <0>        -0.2004
      8 C7          3.3836    1.5725    0.0886 C.ar      1 <0>        -0.1088
      9 C8          3.9542    1.6856   -1.1658 C.ar      1 <0>        -0.1348
     10 C9          3.4075    1.0106   -2.2408 C.ar      1 <0>        -0.1015
     11 C10         2.2864    0.2134   -2.0613 C.ar      1 <0>         0.1396
     12 N1          1.7336   -0.4760   -3.1482 N.pl3     1 <0>        -0.6154
     13 C11         2.4938   -0.7081   -4.2777 C.ar      1 <0>         0.6515
     14 N2          3.7920   -0.4204   -4.2760 N.ar      1 <0>        -0.6640
     15 C12         4.5236   -0.6437   -5.3630 C.ar      1 <0>         0.6497
     16 N3          3.9572   -1.1543   -6.4521 N.ar      1 <0>        -0.6737
     17 C13         2.6595   -1.4419   -6.4539 C.ar      1 <0>         0.6730
     18 N4          1.9289   -1.2241   -5.3647 N.ar      1 <0>        -0.6716
     19 N5          2.0716   -1.9715   -7.5847 N.pl3     1 <0>        -0.5816
     20 C14         2.7609   -2.2724   -8.8479 C.3       1 <0>         0.1250
     21 C15         1.7027   -2.8214   -9.8279 C.3       1 <0>        -0.1341
     22 C16         0.3733   -2.2693   -9.2488 C.3       1 <0>        -0.1352
     23 C17         0.6497   -2.3351   -7.7238 C.3       1 <0>         0.1216
     24 N6          5.8710   -0.3451   -5.3612 N.pl3     1 <0>        -0.6801
     25 C18         6.4949    0.2180   -4.1612 C.3       1 <0>         0.1367
     26 C19         7.9836    0.4543   -4.4235 C.3       1 <0>         0.0613
     27 O2          8.1366    1.4536   -5.4335 O.3       1 <0>        -0.5708
     28 H1          0.3845    1.2305    1.0741 H         1 <0>         0.0807
     29 H2         -1.2978    0.6729    0.9089 H         1 <0>         0.0670
     30 H3         -0.3929    0.3406    2.4053 H         1 <0>         0.0722
     31 H4          1.0800   -1.4003    2.6164 H         1 <0>         0.0724
     32 H5          1.5853   -2.4299    1.2552 H         1 <0>         0.0652
     33 H6          2.2213   -0.7740    1.4026 H         1 <0>         0.0889
     34 H7         -1.7928   -1.5374    0.1530 H         1 <0>         0.0669
     35 H8         -0.6044   -2.8515    0.3230 H         1 <0>         0.0657
     36 H9         -1.2849   -2.0740    1.7724 H         1 <0>         0.0780
     37 H10         1.8202    0.6975    1.2552 H         1 <0>         0.1518
     38 H11         3.8140    2.1021    0.9257 H         1 <0>         0.1228
     39 H12         4.8290    2.3033   -1.3060 H         1 <0>         0.1237
     40 H13         3.8552    1.1007   -3.2195 H         1 <0>         0.1658
     41 H14         0.8169   -0.7904   -3.1076 H         1 <0>         0.4281
     42 H15         3.2054   -1.3635   -9.2533 H         1 <0>         0.0701
     43 H16         3.5339   -3.0221   -8.6789 H         1 <0>         0.0689
     44 H17         1.8735   -2.4387  -10.8341 H         1 <0>         0.0855
     45 H18         1.7019   -3.9114   -9.8237 H         1 <0>         0.0781
     46 H19         0.2017   -1.2432   -9.5743 H         1 <0>         0.0775
     47 H20        -0.4665   -2.9091   -9.5199 H         1 <0>         0.0876
     48 H21         0.4775   -3.3436   -7.3479 H         1 <0>         0.0685
     49 H22         0.0214   -1.6193   -7.1936 H         1 <0>         0.0828
     50 H23         6.4049   -0.5080   -6.1545 H         1 <0>         0.4182
     51 H24         6.0151    1.1645   -3.9123 H         1 <0>         0.0770
     52 H25         6.3783   -0.4779   -3.3305 H         1 <0>         0.0847
     53 H26         8.4657    0.7892   -3.5051 H         1 <0>         0.0674
     54 H27         8.4455   -0.4745   -4.7584 H         1 <0>         0.0541
     55 H28         9.0570    1.6549   -5.6514 H         1 <0>         0.3836
@<TRIPOS>BOND
     1    1    2 1
     2    1   28 1
     3    1   29 1
     4    1   30 1
     5    2    3 1
     6    2    4 1
     7    2    5 1
     8    3   31 1
     9    3   32 1
    10    3   33 1
    11    4   34 1
    12    4   35 1
    13    4   36 1
    14    5    6 1
    15    6   11 ar
    16    6    7 ar
    17    7    8 ar
    18    7   37 1
    19    8    9 ar
    20    8   38 1
    21    9   10 ar
    22    9   39 1
    23   10   11 ar
    24   10   40 1
    25   11   12 1
    26   12   13 1
    27   12   41 1
    28   13   18 ar
    29   13   14 ar
    30   14   15 ar
    31   15   16 ar
    32   15   24 1
    33   16   17 ar
    34   17   18 ar
    35   17   19 1
    36   19   23 1
    37   19   20 1
    38   20   21 1
    39   20   42 1
    40   20   43 1
    41   21   22 1
    42   21   44 1
    43   21   45 1
    44   22   23 1
    45   22   46 1
    46   22   47 1
    47   23   48 1
    48   23   49 1
    49   24   25 1
    50   24   50 1
    51   25   26 1
    52   25   51 1
    53   25   52 1
    54   26   27 1
    55   26   53 1
    56   26   54 1
    57   27   55 1
@<TRIPOS>MOLECULE
CHEMBL403714
   54    57     0     0     0
SMALL
USER_CHARGES

@<TRIPOS>ATOM
      1 C1         -0.3046    1.9063    0.0810 C.3       1 <0>        -0.1440
      2 C2         -0.3584    0.4074   -0.0660 C.ar      1 <0>         0.0981
      3 C3         -0.4746   -0.1704   -1.2945 C.ar      1 <0>        -0.2264
      4 C4         -0.5223   -1.5669   -1.4075 C.ar      1 <0>         0.4982
      5 N1         -0.4578   -2.3466   -0.3481 N.ar      1 <0>        -0.5259
      6 C5         -0.3432   -1.8368    0.8839 C.ar      1 <0>         0.1471
      7 C6         -0.2839   -0.4331    1.0636 C.ar      1 <0>        -0.0908
      8 C7         -0.1587    0.0971    2.3565 C.ar      1 <0>        -0.0954
      9 C8         -0.0894   -0.7564    3.4357 C.ar      1 <0>         0.1680
     10 C9         -0.1428   -2.1421    3.2512 C.ar      1 <0>        -0.0399
     11 C10        -0.2755   -2.6779    2.0083 C.ar      1 <0>        -0.1240
     12 N2          0.0361   -0.2326    4.7279 N.am      1 <0>        -0.6785
     13 C11         0.7660   -0.8874    5.6525 C.2       1 <0>         0.5231
     14 O1          1.3940   -1.8769    5.3400 O.2       1 <0>        -0.5086
     15 C12         0.8018   -0.3902    7.0746 C.3       1 <0>        -0.1047
     16 C13         1.3607    1.0338    7.1031 C.3       1 <0>        -0.1120
     17 C14         1.3971    1.5386    8.5470 C.3       1 <0>        -0.1193
     18 C15         2.2915    0.6229    9.3850 C.3       1 <0>        -0.1255
     19 C16         1.7326   -0.8011    9.3566 C.3       1 <0>        -0.1218
     20 C17         1.6963   -1.3059    7.9127 C.3       1 <0>        -0.1014
     21 N3         -0.6408   -2.1412   -2.6651 N.pl3     1 <0>        -0.5841
     22 C18        -0.8274   -1.3082   -3.8637 C.3       1 <0>         0.0707
     23 C19         0.2037   -1.7353   -4.9147 C.3       1 <0>         0.0424
     24 O2          0.1228   -3.1498   -5.1057 O.3       1 <0>        -0.3631
     25 C20         0.4360   -3.9166   -3.9405 C.3       1 <0>         0.0470
     26 C21        -0.5775   -3.6009   -2.8404 C.3       1 <0>         0.0573
     27 H1          0.7319    2.2395    0.0281 H         1 <0>         0.1090
     28 H2         -0.8771    2.3709   -0.7217 H         1 <0>         0.0980
     29 H3         -0.7295    2.1924    1.0431 H         1 <0>         0.0944
     30 H4         -0.5302    0.4463   -2.1794 H         1 <0>         0.1795
     31 H5         -0.1166    1.1661    2.5045 H         1 <0>         0.1588
     32 H6         -0.0867   -2.7957    4.1091 H         1 <0>         0.1605
     33 H7         -0.3159   -3.7499    1.8839 H         1 <0>         0.1549
     34 H8         -0.4023    0.6015    4.9577 H         1 <0>         0.4207
     35 H9         -0.2076   -0.3926    7.4859 H         1 <0>         0.1074
     36 H10         2.3701    1.0363    6.6918 H         1 <0>         0.0714
     37 H11         0.7235    1.6862    6.5060 H         1 <0>         0.0657
     38 H12         1.7952    2.5531    8.5672 H         1 <0>         0.0705
     39 H13         0.3877    1.5362    8.9583 H         1 <0>         0.0673
     40 H14         3.3009    0.6253    8.9737 H         1 <0>         0.0644
     41 H15         2.3174    0.9825   10.4136 H         1 <0>         0.0681
     42 H16         2.3698   -1.4535    9.9536 H         1 <0>         0.0708
     43 H17         0.7232   -0.8036    9.7679 H         1 <0>         0.0652
     44 H18         1.2981   -2.3204    7.8924 H         1 <0>         0.0715
     45 H19         2.7057   -1.3035    7.5014 H         1 <0>         0.0722
     46 H20        -1.8337   -1.4514   -4.2573 H         1 <0>         0.1077
     47 H21        -0.6784   -0.2590   -3.6084 H         1 <0>         0.1133
     48 H22        -0.0051   -1.2282   -5.8566 H         1 <0>         0.1271
     49 H23         1.2040   -1.4708   -4.5718 H         1 <0>         0.0673
     50 H24         0.3945   -4.9788   -4.1817 H         1 <0>         0.1264
     51 H25         1.4372   -3.6600   -3.5941 H         1 <0>         0.0661
     52 H26        -0.2630   -4.0693   -1.9077 H         1 <0>         0.0905
     53 H27        -1.5582   -3.9789   -3.1292 H         1 <0>         0.1114
     54 H28        -0.4943   -3.3091   -0.4630 H         1 <0>         0.4336
@<TRIPOS>BOND
     1    1    2 1
     2    1   27 1
     3    1   28 1
     4    1   29 1
     5    2    7 ar
     6    2    3 ar
     7    3    4 ar
     8    3   30 1
     9    4    5 ar
    10    4   21 1
    11    5    6 ar
    12    5   54 1
    13    6   11 ar
    14    6    7 ar
    15    7    8 ar
    16    8    9 ar
    17    8   31 1
    18    9   10 ar
    19    9   12 1
    20   10   11 ar
    21   10   32 1
    22   11   33 1
    23   12   13 am
    24   12   34 1
    25   13   14 2
    26   13   15 1
    27   15   20 1
    28   15   16 1
    29   15   35 1
    30   16   17 1
    31   16   36 1
    32   16   37 1
    33   17   18 1
    34   17   38 1
    35   17   39 1
    36   18   19 1
    37   18   40 1
    38   18   41 1
    39   19   20 1
    40   19   42 1
    41   19   43 1
    42   20   44 1
    43   20   45 1
    44   21   26 1
    45   21   22 1
    46   22   23 1
    47   22   46 1
    48   22   47 1
    49   23   24 1
    50   23   48 1
    51   23   49 1
    52   24   25 1
    53   25   26 1
    54   25   50 1
    55   25   51 1
    56   26   52 1
    57   26   53 1
@<TRIPOS>MOLECULE
CHEMBL57496
   77    78     0     0     0
SMALL
USER_CHARGES

@<TRIPOS>ATOM
      1 C1         -0.0187    1.5258    0.0104 C.3       1 <0>        -0.1550
      2 C2          0.0021   -0.0041    0.0020 C.3       1 <0>        -0.1264
      3 C3         -1.4333   -0.5336    0.0129 C.3       1 <0>        -0.1211
      4 C4         -1.4126   -2.0635    0.0045 C.3       1 <0>        -0.1218
      5 C5         -2.8479   -2.5931    0.0153 C.3       1 <0>        -0.1201
      6 C6         -2.8272   -4.1229    0.0069 C.3       1 <0>        -0.1200
      7 C7         -4.2626   -4.6525    0.0178 C.3       1 <0>        -0.1198
      8 C8         -4.2418   -6.1823    0.0094 C.3       1 <0>        -0.1038
      9 C9         -5.6772   -6.7119    0.0202 C.3       1 <0>        -0.1392
     10 C10        -5.6568   -8.2187    0.0119 C.2       1 <0>         0.5144
     11 O1         -4.5984   -8.8108   -0.0014 O.2       1 <0>        -0.4905
     12 N1         -6.8147   -8.9084    0.0193 N.am      1 <0>        -0.7513
     13 C11        -6.7948  -10.3733    0.0112 C.3       1 <0>         0.0960
     14 H1         -5.9538  -10.7220   -0.5882 H         1 <0>         0.1157
     15 C12        -8.1009  -10.8977   -0.5888 C.3       1 <0>        -0.0186
     16 N2         -8.3005  -10.3073   -1.9190 N.4       1 <0>        -0.4995
     17 C13        -9.5545  -10.8109   -2.4951 C.3       1 <0>         0.0873
     18 C14        -9.4425  -12.2914   -2.7131 C.2       1 <0>        -0.1904
     19 C15        -9.8628  -12.9021   -3.7742 C.2       1 <0>        -0.0780
     20 C16       -10.5113  -12.2135   -4.9393 C.3       1 <0>         0.1048
     21 C17       -10.9819  -10.8160   -4.5303 C.3       1 <0>         0.0928
     22 C18        -9.8231  -10.1013   -3.8240 C.3       1 <0>         0.0942
     23 O2         -8.6538  -10.1573   -4.6434 O.3       1 <0>        -0.5615
     24 O3        -12.0937  -10.9252   -3.6392 O.3       1 <0>        -0.5542
     25 O4        -11.6335  -12.9815   -5.3787 O.3       1 <0>        -0.5538
     26 C19        -9.6898  -14.3975   -3.8442 C.3       1 <0>         0.0940
     27 O5         -9.0576  -14.8603   -2.6491 O.3       1 <0>        -0.5720
     28 C20        -6.6485  -10.8892    1.4442 C.3       1 <0>         0.1478
     29 H2         -7.4895  -10.5406    2.0435 H         1 <0>         0.1161
     30 C21        -5.3620  -10.3726    2.0351 C.ar      1 <0>        -0.1182
     31 C22        -4.1629  -10.9855    1.7231 C.ar      1 <0>        -0.0861
     32 C23        -2.9829  -10.5117    2.2652 C.ar      1 <0>        -0.1050
     33 C24        -3.0019   -9.4247    3.1190 C.ar      1 <0>        -0.1041
     34 C25        -4.2009   -8.8112    3.4303 C.ar      1 <0>        -0.1142
     35 C26        -5.3805   -9.2824    2.8849 C.ar      1 <0>        -0.1082
     36 O6         -6.6291  -12.3181    1.4363 O.3       1 <0>        -0.5452
     37 H3          1.0039    1.9031    0.0027 H         1 <0>         0.0548
     38 H4         -0.5459    1.8868   -0.8726 H         1 <0>         0.0534
     39 H5         -0.5289    1.8773    0.9072 H         1 <0>         0.0537
     40 H6          0.5123   -0.3556   -0.8948 H         1 <0>         0.0604
     41 H7          0.5293   -0.3651    0.8851 H         1 <0>         0.0607
     42 H8         -1.9435   -0.1821    0.9097 H         1 <0>         0.0608
     43 H9         -1.9605   -0.1726   -0.8702 H         1 <0>         0.0604
     44 H10        -0.9024   -2.4150   -0.8923 H         1 <0>         0.0608
     45 H11        -0.8854   -2.4246    0.8875 H         1 <0>         0.0613
     46 H12        -3.3581   -2.2415    0.9121 H         1 <0>         0.0611
     47 H13        -3.3751   -2.2320   -0.8677 H         1 <0>         0.0604
     48 H14        -2.3170   -4.4744   -0.8899 H         1 <0>         0.0617
     49 H15        -2.3000   -4.4840    0.8900 H         1 <0>         0.0626
     50 H16        -4.7728   -4.3010    0.9146 H         1 <0>         0.0628
     51 H17        -4.7898   -4.2914   -0.8653 H         1 <0>         0.0613
     52 H18        -3.7316   -6.5338   -0.8874 H         1 <0>         0.0690
     53 H19        -3.7146   -6.5434    0.8924 H         1 <0>         0.0723
     54 H20        -6.1874   -6.3604    0.9170 H         1 <0>         0.0970
     55 H21        -6.2044   -6.3508   -0.8628 H         1 <0>         0.0928
     56 H22        -7.6612   -8.4349    0.0299 H         1 <0>         0.4004
     57 H23        -8.0503  -11.9830   -0.6768 H         1 <0>         0.1565
     58 H24        -8.9339  -10.6242    0.0588 H         1 <0>         0.1413
     59 H25        -8.3473   -9.3027   -1.8375 H         1 <0>         0.4229
     60 H26       -10.3749  -10.6102   -1.8060 H         1 <0>         0.1644
     61 H27        -8.9823  -12.8843   -1.9365 H         1 <0>         0.1508
     62 H28        -9.7927  -12.1286   -5.7545 H         1 <0>         0.0921
     63 H29       -11.2733  -10.2534   -5.4173 H         1 <0>         0.0911
     64 H30       -10.0934   -9.0621   -3.6364 H         1 <0>         0.1028
     65 H31        -8.7546   -9.7254   -5.5027 H         1 <0>         0.4113
     66 H32       -12.8573  -11.3825   -4.0172 H         1 <0>         0.4067
     67 H33       -11.4091  -13.8777   -5.6644 H         1 <0>         0.3934
     68 H34       -10.6659  -14.8718   -3.9460 H         1 <0>         0.0748
     69 H35        -9.0707  -14.6517   -4.7045 H         1 <0>         0.0720
     70 H36        -8.9142  -15.8163   -2.6249 H         1 <0>         0.3981
     71 H37        -4.1480  -11.8347    1.0560 H         1 <0>         0.1116
     72 H38        -2.0461  -10.9909    2.0219 H         1 <0>         0.1220
     73 H39        -2.0801   -9.0549    3.5431 H         1 <0>         0.1226
     74 H40        -4.2159   -7.9622    4.0977 H         1 <0>         0.1216
     75 H41        -6.3168   -8.8009    3.1252 H         1 <0>         0.1144
     76 H42        -5.9051  -12.6988    0.9206 H         1 <0>         0.3816
     77 H43        -7.5294  -10.5605   -2.5185 H         1 <0>         0.4353
@<TRIPOS>BOND
     1    1    2 1
     2    1   37 1
     3    1   38 1
     4    1   39 1
     5    2    3 1
     6    2   40 1
     7    2   41 1
     8    3    4 1
     9    3   42 1
    10    3   43 1
    11    4    5 1
    12    4   44 1
    13    4   45 1
    14    5    6 1
    15    5   46 1
    16    5   47 1
    17    6    7 1
    18    6   48 1
    19    6   49 1
    20    7    8 1
    21    7   50 1
    22    7   51 1
    23    8    9 1
    24    8   52 1
    25    8   53 1
    26    9   10 1
    27    9   54 1
    28    9   55 1
    29   10   11 2
    30   10   12 am
    31   12   13 1
    32   12   56 1
    33   13   14 1
    34   13   15 1
    35   13   28 1
    36   15   16 1
    37   15   57 1
    38   15   58 1
    39   16   17 1
    40   16   59 1
    41   16   77 1
    42   17   22 1
    43   17   18 1
    44   17   60 1
    45   18   19 2
    46   18   61 1
    47   19   20 1
    48   19   26 1
    49   20   21 1
    50   20   25 1
    51   20   62 1
    52   21   22 1
    53   21   24 1
    54   21   63 1
    55   22   23 1
    56   22   64 1
    57   23   65 1
    58   24   66 1
    59   25   67 1
    60   26   27 1
    61   26   68 1
    62   26   69 1
    63   27   70 1
    64   28   29 1
    65   28   30 1
    66   28   36 1
    67   30   35 ar
    68   30   31 ar
    69   31   32 ar
    70   31   71 1
    71   32   33 ar
    72   32   72 1
    73   33   34 ar
    74   33   73 1
    75   34   35 ar
    76   34   74 1
    77   35   75 1
    78   36   76 1
@<TRIPOS>MOLECULE
CHEMBL57496__1
   76    77     0     0     0
SMALL
USER_CHARGES

@<TRIPOS>ATOM
      1 C1         -0.0187    1.5258    0.0104 C.3       1 <0>        -0.1541
      2 C2          0.0021   -0.0041    0.0020 C.3       1 <0>        -0.1264
      3 C3          0.7182   -0.4975   -1.2568 C.3       1 <0>        -0.1208
      4 C4          0.7390   -2.0273   -1.2652 C.3       1 <0>        -0.1216
      5 C5          1.4551   -2.5207   -2.5240 C.3       1 <0>        -0.1197
      6 C6          1.4758   -4.0506   -2.5324 C.3       1 <0>        -0.1196
      7 C7          2.1920   -4.5440   -3.7912 C.3       1 <0>        -0.1192
      8 C8          2.2127   -6.0738   -3.7996 C.3       1 <0>        -0.1013
      9 C9          2.9289   -6.5673   -5.0584 C.3       1 <0>        -0.1391
     10 C10         2.9493   -8.0741   -5.0667 C.2       1 <0>         0.5140
     11 O1          2.4411   -8.6925   -4.1555 O.2       1 <0>        -0.5107
     12 N1          3.5323   -8.7345   -6.0867 N.am      1 <0>        -0.7271
     13 C11         3.5522  -10.1994   -6.0948 C.3       1 <0>         0.1259
     14 H1          3.6564  -10.5669   -5.0739 H         1 <0>         0.1064
     15 C12         4.7327  -10.6888   -6.9361 C.3       1 <0>         0.0433
     16 N2          5.9753  -10.0889   -6.4321 N.3       1 <0>        -0.6635
     17 C13         7.1327  -10.5372   -7.2177 C.3       1 <0>         0.1303
     18 C14         7.6115  -11.8576   -6.6889 C.2       1 <0>        -0.0785
     19 C15         8.8581  -12.1618   -6.5191 C.2       1 <0>        -0.1735
     20 C16         9.9985  -11.2329   -6.8171 C.3       1 <0>         0.1239
     21 C17         9.5262  -10.0913   -7.7200 C.3       1 <0>         0.0894
     22 C18         8.2479   -9.4941   -7.1184 C.3       1 <0>         0.1113
     23 O2          8.4731   -9.1606   -5.7473 O.3       1 <0>        -0.5340
     24 O3          9.2511  -10.5960   -9.0283 O.3       1 <0>        -0.5516
     25 O4         11.0399  -11.9573   -7.4750 O.3       1 <0>        -0.5651
     26 C19         9.1847  -13.5340   -5.9885 C.3       1 <0>         0.1115
     27 O5          7.9738  -14.2604   -5.7692 O.3       1 <0>        -0.5663
     28 C20         2.2461  -10.7238   -6.6948 C.3       1 <0>         0.1384
     29 H2          2.1419  -10.3563   -7.7156 H         1 <0>         0.0612
     30 C21         1.0834  -10.2418   -5.8661 C.ar      1 <0>        -0.0682
     31 C22         0.7639  -10.8834   -4.6841 C.ar      1 <0>        -0.0642
     32 C23        -0.3026  -10.4413   -3.9240 C.ar      1 <0>        -0.1150
     33 C24        -1.0495   -9.3571   -4.3456 C.ar      1 <0>        -0.1131
     34 C25        -0.7295   -8.7149   -5.5271 C.ar      1 <0>        -0.1219
     35 C26         0.3397   -9.1544   -6.2851 C.ar      1 <0>        -0.1125
     36 O6          2.2655  -12.1527   -6.7026 O.3       1 <0>        -0.5527
     37 H3          1.0039    1.9031    0.0027 H         1 <0>         0.0531
     38 H4         -0.5459    1.8868   -0.8726 H         1 <0>         0.0531
     39 H5         -0.5289    1.8773    0.9072 H         1 <0>         0.0533
     40 H6          0.5293   -0.3651    0.8851 H         1 <0>         0.0603
     41 H7         -1.0205   -0.3814    0.0098 H         1 <0>         0.0603
     42 H8          0.1910   -0.1364   -2.1398 H         1 <0>         0.0602
     43 H9          1.7408   -0.1202   -1.2645 H         1 <0>         0.0602
     44 H10         1.2661   -2.3884   -0.3821 H         1 <0>         0.0608
     45 H11        -0.2836   -2.4046   -1.2575 H         1 <0>         0.0607
     46 H12         0.9279   -2.1597   -3.4071 H         1 <0>         0.0600
     47 H13         2.4777   -2.1435   -2.5317 H         1 <0>         0.0600
     48 H14         2.0030   -4.4117   -1.6494 H         1 <0>         0.0616
     49 H15         0.4533   -4.4279   -2.5247 H         1 <0>         0.0616
     50 H16         1.6648   -4.1829   -4.6743 H         1 <0>         0.0602
     51 H17         3.2146   -4.1667   -3.7990 H         1 <0>         0.0603
     52 H18         2.7399   -6.4349   -2.9166 H         1 <0>         0.0682
     53 H19         1.1901   -6.4511   -3.7919 H         1 <0>         0.0699
     54 H20         2.4017   -6.2062   -5.9415 H         1 <0>         0.0881
     55 H21         3.9515   -6.1900   -5.0662 H         1 <0>         0.0890
     56 H22         3.9388   -8.2400   -6.8155 H         1 <0>         0.3941
     57 H23         4.8005  -11.7747   -6.8700 H         1 <0>         0.0906
     58 H24         4.5838  -10.3967   -7.9756 H         1 <0>         0.0369
     59 H25         5.9128   -9.0819   -6.4227 H         1 <0>         0.3459
     60 H26         6.8383  -10.6533   -8.2607 H         1 <0>         0.0776
     61 H27         6.8698  -12.6000   -6.4340 H         1 <0>         0.1253
     62 H28        10.3819  -10.8205   -5.8839 H         1 <0>         0.0748
     63 H29        10.2984   -9.3240   -7.7748 H         1 <0>         0.0688
     64 H30         7.9641   -8.6004   -7.6742 H         1 <0>         0.0704
     65 H31         9.1689   -8.5030   -5.6116 H         1 <0>         0.3772
     66 H32        10.0140  -11.0031   -9.4612 H         1 <0>         0.3912
     67 H33        11.3966  -12.6914   -6.9563 H         1 <0>         0.3835
     68 H34         9.8016  -14.0662   -6.7125 H         1 <0>         0.0552
     69 H35         9.7275  -13.4402   -5.0479 H         1 <0>         0.0531
     70 H36         8.1082  -15.1548   -5.4268 H         1 <0>         0.3834
     71 H37         1.3474  -11.7305   -4.3547 H         1 <0>         0.1179
     72 H38        -0.5526  -10.9430   -3.0008 H         1 <0>         0.1166
     73 H39        -1.8832   -9.0121   -3.7521 H         1 <0>         0.1160
     74 H40        -1.3132   -7.8681   -5.8567 H         1 <0>         0.1160
     75 H41         0.5920   -8.6504   -7.2063 H         1 <0>         0.1104
     76 H42         2.9895  -12.5334   -7.2183 H         1 <0>         0.3779
@<TRIPOS>BOND
     1    1    2 1
     2    1   37 1
     3    1   38 1
     4    1   39 1
     5    2    3 1
     6    2   40 1
     7    2   41 1
     8    3    4 1
     9    3   42 1
    10    3   43 1
    11    4    5 1
    12    4   44 1
    13    4   45 1
    14    5    6 1
    15    5   46 1
    16    5   47 1
    17    6    7 1
    18    6   48 1
    19    6   49 1
    20    7    8 1
    21    7   50 1
    22    7   51 1
    23    8    9 1
    24    8   52 1
    25    8   53 1
    26    9   10 1
    27    9   54 1
    28    9   55 1
    29   10   11 2
    30   10   12 am
    31   12   13 1
    32   12   56 1
    33   13   14 1
    34   13   15 1
    35   13   28 1
    36   15   16 1
    37   15   57 1
    38   15   58 1
    39   16   17 1
    40   16   59 1
    41   17   22 1
    42   17   18 1
    43   17   60 1
    44   18   19 2
    45   18   61 1
    46   19   20 1
    47   19   26 1
    48   20   21 1
    49   20   25 1
    50   20   62 1
    51   21   22 1
    52   21   24 1
    53   21   63 1
    54   22   23 1
    55   22   64 1
    56   23   65 1
    57   24   66 1
    58   25   67 1
    59   26   27 1
    60   26   68 1
    61   26   69 1
    62   27   70 1
    63   28   29 1
    64   28   30 1
    65   28   36 1
    66   30   35 ar
    67   30   31 ar
    68   31   32 ar
    69   31   71 1
    70   32   33 ar
    71   32   72 1
    72   33   34 ar
    73   33   73 1
    74   34   35 ar
    75   34   74 1
    76   35   75 1
    77   36   76 1
@<TRIPOS>MOLECULE
CHEMBL57496__2
   77    78     0     0     0
SMALL
USER_CHARGES

@<TRIPOS>ATOM
      1 C1         -0.0187    1.5258    0.0104 C.3       1 <0>        -0.1550
      2 C2          0.0021   -0.0041    0.0020 C.3       1 <0>        -0.1263
      3 C3         -1.4333   -0.5336    0.0129 C.3       1 <0>        -0.1211
      4 C4         -1.4126   -2.0635    0.0045 C.3       1 <0>        -0.1217
      5 C5         -2.8479   -2.5931    0.0153 C.3       1 <0>        -0.1202
      6 C6         -2.8272   -4.1229    0.0069 C.3       1 <0>        -0.1199
      7 C7         -4.2626   -4.6525    0.0178 C.3       1 <0>        -0.1201
      8 C8         -4.2418   -6.1823    0.0094 C.3       1 <0>        -0.1034
      9 C9         -5.6772   -6.7119    0.0202 C.3       1 <0>        -0.1398
     10 C10        -5.6568   -8.2187    0.0119 C.2       1 <0>         0.5148
     11 O1         -4.5984   -8.8108   -0.0014 O.2       1 <0>        -0.4918
     12 N1         -6.8147   -8.9084    0.0193 N.am      1 <0>        -0.7514
     13 C11        -6.7948  -10.3733    0.0112 C.3       1 <0>         0.0957
     14 H1         -5.9538  -10.7220   -0.5882 H         1 <0>         0.1156
     15 C12        -8.1009  -10.8977   -0.5888 C.3       1 <0>        -0.0176
     16 N2         -8.3005  -10.3073   -1.9190 N.4       1 <0>        -0.5030
     17 C13        -9.5545  -10.8109   -2.4951 C.3       1 <0>         0.0844
     18 C14        -9.4425  -12.2914   -2.7131 C.2       1 <0>        -0.1906
     19 C15        -9.8628  -12.9021   -3.7742 C.2       1 <0>        -0.0858
     20 C16       -10.5113  -12.2135   -4.9393 C.3       1 <0>         0.0997
     21 C17       -10.9819  -10.8160   -4.5303 C.3       1 <0>         0.0937
     22 C18        -9.8231  -10.1013   -3.8240 C.3       1 <0>         0.0968
     23 O2        -10.1774   -8.7389   -3.5780 O.3       1 <0>        -0.5544
     24 O3        -12.0937  -10.9252   -3.6392 O.3       1 <0>        -0.5476
     25 O4        -11.6335  -12.9815   -5.3787 O.3       1 <0>        -0.5490
     26 C19        -9.6898  -14.3975   -3.8442 C.3       1 <0>         0.0939
     27 O5         -9.0576  -14.8603   -2.6491 O.3       1 <0>        -0.5722
     28 C20        -6.6485  -10.8892    1.4442 C.3       1 <0>         0.1477
     29 H2         -7.4895  -10.5406    2.0435 H         1 <0>         0.1164
     30 C21        -5.3620  -10.3726    2.0351 C.ar      1 <0>        -0.1182
     31 C22        -4.1629  -10.9855    1.7231 C.ar      1 <0>        -0.0862
     32 C23        -2.9829  -10.5117    2.2652 C.ar      1 <0>        -0.1051
     33 C24        -3.0019   -9.4247    3.1190 C.ar      1 <0>        -0.1040
     34 C25        -4.2009   -8.8112    3.4303 C.ar      1 <0>        -0.1140
     35 C26        -5.3805   -9.2824    2.8849 C.ar      1 <0>        -0.1080
     36 O6         -6.6291  -12.3181    1.4363 O.3       1 <0>        -0.5449
     37 H3          1.0039    1.9031    0.0027 H         1 <0>         0.0548
     38 H4         -0.5459    1.8868   -0.8726 H         1 <0>         0.0535
     39 H5         -0.5289    1.8773    0.9072 H         1 <0>         0.0537
     40 H6          0.5123   -0.3556   -0.8948 H         1 <0>         0.0603
     41 H7          0.5293   -0.3651    0.8851 H         1 <0>         0.0607
     42 H8         -1.9435   -0.1821    0.9097 H         1 <0>         0.0609
     43 H9         -1.9605   -0.1726   -0.8702 H         1 <0>         0.0605
     44 H10        -0.9024   -2.4150   -0.8923 H         1 <0>         0.0607
     45 H11        -0.8854   -2.4246    0.8875 H         1 <0>         0.0612
     46 H12        -3.3581   -2.2415    0.9121 H         1 <0>         0.0612
     47 H13        -3.3751   -2.2320   -0.8677 H         1 <0>         0.0605
     48 H14        -2.3170   -4.4744   -0.8899 H         1 <0>         0.0615
     49 H15        -2.3000   -4.4840    0.8900 H         1 <0>         0.0625
     50 H16        -4.7728   -4.3010    0.9146 H         1 <0>         0.0630
     51 H17        -4.7898   -4.2914   -0.8653 H         1 <0>         0.0615
     52 H18        -3.7316   -6.5338   -0.8874 H         1 <0>         0.0686
     53 H19        -3.7146   -6.5434    0.8924 H         1 <0>         0.0721
     54 H20        -6.1874   -6.3604    0.9170 H         1 <0>         0.0973
     55 H21        -6.2044   -6.3508   -0.8628 H         1 <0>         0.0935
     56 H22        -7.6612   -8.4349    0.0299 H         1 <0>         0.4021
     57 H23        -8.0503  -11.9830   -0.6768 H         1 <0>         0.1568
     58 H24        -8.9339  -10.6242    0.0588 H         1 <0>         0.1424
     59 H25        -8.3473   -9.3027   -1.8375 H         1 <0>         0.4310
     60 H26       -10.3749  -10.6102   -1.8060 H         1 <0>         0.1640
     61 H27        -8.9823  -12.8843   -1.9365 H         1 <0>         0.1572
     62 H28        -9.7927  -12.1286   -5.7545 H         1 <0>         0.0906
     63 H29       -11.2733  -10.2534   -5.4173 H         1 <0>         0.0921
     64 H30        -8.9312  -10.1440   -4.4490 H         1 <0>         0.0959
     65 H31       -10.3614   -8.2296   -4.3791 H         1 <0>         0.4084
     66 H32       -12.8573  -11.3825   -4.0172 H         1 <0>         0.4019
     67 H33       -11.4091  -13.8777   -5.6644 H         1 <0>         0.3942
     68 H34       -10.6659  -14.8718   -3.9460 H         1 <0>         0.0770
     69 H35        -9.0707  -14.6517   -4.7045 H         1 <0>         0.0736
     70 H36        -8.9142  -15.8163   -2.6249 H         1 <0>         0.3995
     71 H37        -4.1480  -11.8347    1.0560 H         1 <0>         0.1114
     72 H38        -2.0461  -10.9909    2.0219 H         1 <0>         0.1219
     73 H39        -2.0801   -9.0549    3.5431 H         1 <0>         0.1226
     74 H40        -4.2159   -7.9622    4.0977 H         1 <0>         0.1218
     75 H41        -6.3168   -8.8009    3.1252 H         1 <0>         0.1146
     76 H42        -5.9051  -12.6988    0.9206 H         1 <0>         0.3811
     77 H43        -7.5294  -10.5605   -2.5185 H         1 <0>         0.4250
@<TRIPOS>BOND
     1    1    2 1
     2    1   37 1
     3    1   38 1
     4    1   39 1
     5    2    3 1
     6    2   40 1
     7    2   41 1
     8    3    4 1
     9    3   42 1
    10    3   43 1
    11    4    5 1
    12    4   44 1
    13    4   45 1
    14    5    6 1
    15    5   46 1
    16    5   47 1
    17    6    7 1
    18    6   48 1
    19    6   49 1
    20    7    8 1
    21    7   50 1
    22    7   51 1
    23    8    9 1
    24    8   52 1
    25    8   53 1
    26    9   10 1
    27    9   54 1
    28    9   55 1
    29   10   11 2
    30   10   12 am
    31   12   13 1
    32   12   56 1
    33   13   14 1
    34   13   15 1
    35   13   28 1
    36   15   16 1
    37   15   57 1
    38   15   58 1
    39   16   17 1
    40   16   59 1
    41   16   77 1
    42   17   22 1
    43   17   18 1
    44   17   60 1
    45   18   19 2
    46   18   61 1
    47   19   20 1
    48   19   26 1
    49   20   21 1
    50   20   25 1
    51   20   62 1
    52   21   22 1
    53   21   24 1
    54   21   63 1
    55   22   23 1
    56   22   64 1
    57   23   65 1
    58   24   66 1
    59   25   67 1
    60   26   27 1
    61   26   68 1
    62   26   69 1
    63   27   70 1
    64   28   29 1
    65   28   30 1
    66   28   36 1
    67   30   35 ar
    68   30   31 ar
    69   31   32 ar
    70   31   71 1
    71   32   33 ar
    72   32   72 1
    73   33   34 ar
    74   33   73 1
    75   34   35 ar
    76   34   74 1
    77   35   75 1
    78   36   76 1
@<TRIPOS>MOLECULE
CHEMBL57496__3
   76    77     0     0     0
SMALL
USER_CHARGES

@<TRIPOS>ATOM
      1 C1         -0.0187    1.5258    0.0104 C.3       1 <0>        -0.1541
      2 C2          0.0021   -0.0041    0.0020 C.3       1 <0>        -0.1263
      3 C3          0.7182   -0.4975   -1.2568 C.3       1 <0>        -0.1209
      4 C4          0.7390   -2.0273   -1.2652 C.3       1 <0>        -0.1215
      5 C5          1.4551   -2.5207   -2.5240 C.3       1 <0>        -0.1198
      6 C6          1.4758   -4.0506   -2.5324 C.3       1 <0>        -0.1195
      7 C7          2.1920   -4.5440   -3.7912 C.3       1 <0>        -0.1194
      8 C8          2.2127   -6.0738   -3.7996 C.3       1 <0>        -0.1011
      9 C9          2.9289   -6.5673   -5.0584 C.3       1 <0>        -0.1394
     10 C10         2.9493   -8.0741   -5.0667 C.2       1 <0>         0.5136
     11 O1          2.4411   -8.6925   -4.1555 O.2       1 <0>        -0.5121
     12 N1          3.5323   -8.7345   -6.0867 N.am      1 <0>        -0.7271
     13 C11         3.5522  -10.1994   -6.0948 C.3       1 <0>         0.1254
     14 H1          3.6564  -10.5669   -5.0739 H         1 <0>         0.1058
     15 C12         4.7327  -10.6888   -6.9361 C.3       1 <0>         0.0456
     16 N2          5.9753  -10.0889   -6.4321 N.3       1 <0>        -0.6742
     17 C13         7.1327  -10.5372   -7.2177 C.3       1 <0>         0.1293
     18 C14         7.6115  -11.8576   -6.6889 C.2       1 <0>        -0.0801
     19 C15         8.8581  -12.1618   -6.5191 C.2       1 <0>        -0.1814
     20 C16         9.9985  -11.2329   -6.8171 C.3       1 <0>         0.1186
     21 C17         9.5262  -10.0913   -7.7200 C.3       1 <0>         0.0908
     22 C18         8.2479   -9.4941   -7.1184 C.3       1 <0>         0.1112
     23 O2          7.8759   -8.3224   -7.8471 O.3       1 <0>        -0.5553
     24 O3          9.2511  -10.5960   -9.0283 O.3       1 <0>        -0.5448
     25 O4         11.0399  -11.9573   -7.4750 O.3       1 <0>        -0.5602
     26 C19         9.1847  -13.5340   -5.9885 C.3       1 <0>         0.1114
     27 O5          7.9738  -14.2604   -5.7692 O.3       1 <0>        -0.5665
     28 C20         2.2461  -10.7238   -6.6948 C.3       1 <0>         0.1382
     29 H2          2.1419  -10.3563   -7.7156 H         1 <0>         0.0618
     30 C21         1.0834  -10.2418   -5.8661 C.ar      1 <0>        -0.0680
     31 C22         0.7639  -10.8834   -4.6841 C.ar      1 <0>        -0.0644
     32 C23        -0.3026  -10.4413   -3.9240 C.ar      1 <0>        -0.1152
     33 C24        -1.0495   -9.3571   -4.3456 C.ar      1 <0>        -0.1132
     34 C25        -0.7295   -8.7149   -5.5271 C.ar      1 <0>        -0.1217
     35 C26         0.3397   -9.1544   -6.2851 C.ar      1 <0>        -0.1123
     36 O6          2.2655  -12.1527   -6.7026 O.3       1 <0>        -0.5528
     37 H3          1.0039    1.9031    0.0027 H         1 <0>         0.0531
     38 H4         -0.5459    1.8868   -0.8726 H         1 <0>         0.0532
     39 H5         -0.5289    1.8773    0.9072 H         1 <0>         0.0533
     40 H6          0.5293   -0.3651    0.8851 H         1 <0>         0.0603
     41 H7         -1.0205   -0.3814    0.0098 H         1 <0>         0.0603
     42 H8          0.1910   -0.1364   -2.1398 H         1 <0>         0.0603
     43 H9          1.7408   -0.1202   -1.2645 H         1 <0>         0.0602
     44 H10         1.2661   -2.3884   -0.3821 H         1 <0>         0.0607
     45 H11        -0.2836   -2.4046   -1.2575 H         1 <0>         0.0607
     46 H12         0.9279   -2.1597   -3.4071 H         1 <0>         0.0601
     47 H13         2.4777   -2.1435   -2.5317 H         1 <0>         0.0600
     48 H14         2.0030   -4.4117   -1.6494 H         1 <0>         0.0613
     49 H15         0.4533   -4.4279   -2.5247 H         1 <0>         0.0616
     50 H16         1.6648   -4.1829   -4.6743 H         1 <0>         0.0605
     51 H17         3.2146   -4.1667   -3.7990 H         1 <0>         0.0603
     52 H18         2.7399   -6.4349   -2.9166 H         1 <0>         0.0677
     53 H19         1.1901   -6.4511   -3.7919 H         1 <0>         0.0699
     54 H20         2.4017   -6.2062   -5.9415 H         1 <0>         0.0887
     55 H21         3.9515   -6.1900   -5.0662 H         1 <0>         0.0892
     56 H22         3.9388   -8.2400   -6.8155 H         1 <0>         0.3964
     57 H23         4.8005  -11.7747   -6.8700 H         1 <0>         0.0901
     58 H24         4.5838  -10.3967   -7.9756 H         1 <0>         0.0401
     59 H25         5.9128   -9.0819   -6.4227 H         1 <0>         0.3504
     60 H26         6.8383  -10.6533   -8.2607 H         1 <0>         0.0774
     61 H27         6.8698  -12.6000   -6.4340 H         1 <0>         0.1319
     62 H28        10.3819  -10.8205   -5.8839 H         1 <0>         0.0726
     63 H29        10.2984   -9.3240   -7.7748 H         1 <0>         0.0700
     64 H30         8.4196   -9.2397   -6.0725 H         1 <0>         0.0829
     65 H31         8.5391   -7.6190   -7.8260 H         1 <0>         0.3842
     66 H32        10.0140  -11.0031   -9.4612 H         1 <0>         0.3861
     67 H33        11.3966  -12.6914   -6.9563 H         1 <0>         0.3843
     68 H34         9.8016  -14.0662   -6.7125 H         1 <0>         0.0574
     69 H35         9.7275  -13.4402   -5.0479 H         1 <0>         0.0546
     70 H36         8.1082  -15.1548   -5.4268 H         1 <0>         0.3848
     71 H37         1.3474  -11.7305   -4.3547 H         1 <0>         0.1177
     72 H38        -0.5526  -10.9430   -3.0008 H         1 <0>         0.1164
     73 H39        -1.8832   -9.0121   -3.7521 H         1 <0>         0.1159
     74 H40        -1.3132   -7.8681   -5.8567 H         1 <0>         0.1161
     75 H41         0.5920   -8.6504   -7.2063 H         1 <0>         0.1108
     76 H42         2.9895  -12.5334   -7.2183 H         1 <0>         0.3779
@<TRIPOS>BOND
     1    1    2 1
     2    1   37 1
     3    1   38 1
     4    1   39 1
     5    2    3 1
     6    2   40 1
     7    2   41 1
     8    3    4 1
     9    3   42 1
    10    3   43 1
    11    4    5 1
    12    4   44 1
    13    4   45 1
    14    5    6 1
    15    5   46 1
    16    5   47 1
    17    6    7 1
    18    6   48 1
    19    6   49 1
    20    7    8 1
    21    7   50 1
    22    7   51 1
    23    8    9 1
    24    8   52 1
    25    8   53 1
    26    9   10 1
    27    9   54 1
    28    9   55 1
    29   10   11 2
    30   10   12 am
    31   12   13 1
    32   12   56 1
    33   13   14 1
    34   13   15 1
    35   13   28 1
    36   15   16 1
    37   15   57 1
    38   15   58 1
    39   16   17 1
    40   16   59 1
    41   17   22 1
    42   17   18 1
    43   17   60 1
    44   18   19 2
    45   18   61 1
    46   19   20 1
    47   19   26 1
    48   20   21 1
    49   20   25 1
    50   20   62 1
    51   21   22 1
    52   21   24 1
    53   21   63 1
    54   22   23 1
    55   22   64 1
    56   23   65 1
    57   24   66 1
    58   25   67 1
    59   26   27 1
    60   26   68 1
    61   26   69 1
    62   27   70 1
    63   28   29 1
    64   28   30 1
    65   28   36 1
    66   30   35 ar
    67   30   31 ar
    68   31   32 ar
    69   31   71 1
    70   32   33 ar
    71   32   72 1
    72   33   34 ar
    73   33   73 1
    74   34   35 ar
    75   34   74 1
    76   35   75 1
    77   36   76 1
@<TRIPOS>MOLECULE
CHEMBL57496__4
   77    78     0     0     0
SMALL
USER_CHARGES

@<TRIPOS>ATOM
      1 C1         -0.0187    1.5258    0.0104 C.3       1 <0>        -0.1550
      2 C2          0.0021   -0.0041    0.0020 C.3       1 <0>        -0.1264
      3 C3         -1.4333   -0.5336    0.0129 C.3       1 <0>        -0.1211
      4 C4         -1.4126   -2.0635    0.0045 C.3       1 <0>        -0.1218
      5 C5         -2.8479   -2.5931    0.0153 C.3       1 <0>        -0.1201
      6 C6         -2.8272   -4.1229    0.0069 C.3       1 <0>        -0.1201
      7 C7         -4.2626   -4.6525    0.0178 C.3       1 <0>        -0.1199
      8 C8         -4.2418   -6.1823    0.0094 C.3       1 <0>        -0.1039
      9 C9         -5.6772   -6.7119    0.0202 C.3       1 <0>        -0.1393
     10 C10        -5.6568   -8.2187    0.0119 C.2       1 <0>         0.5145
     11 O1         -4.5984   -8.8108   -0.0014 O.2       1 <0>        -0.4900
     12 N1         -6.8147   -8.9084    0.0193 N.am      1 <0>        -0.7517
     13 C11        -6.7948  -10.3733    0.0112 C.3       1 <0>         0.0957
     14 H1         -5.9538  -10.7220   -0.5882 H         1 <0>         0.1163
     15 C12        -8.1009  -10.8977   -0.5888 C.3       1 <0>        -0.0191
     16 N2         -8.3005  -10.3073   -1.9190 N.4       1 <0>        -0.4967
     17 C13        -9.5545  -10.8109   -2.4951 C.3       1 <0>         0.0827
     18 C14        -9.4425  -12.2914   -2.7131 C.2       1 <0>        -0.2035
     19 C15        -9.8628  -12.9021   -3.7742 C.2       1 <0>        -0.0736
     20 C16       -10.5122  -12.2136   -4.9389 C.3       1 <0>         0.1040
     21 C17       -10.9825  -10.8161   -4.5297 C.3       1 <0>         0.0925
     22 C18        -9.8231  -10.1013   -3.8240 C.3       1 <0>         0.0956
     23 O2         -8.6538  -10.1573   -4.6434 O.3       1 <0>        -0.5660
     24 O3        -11.3654  -10.0786   -5.6922 O.3       1 <0>        -0.5548
     25 O4        -11.6346  -12.9817   -5.3774 O.3       1 <0>        -0.5539
     26 C19        -9.6898  -14.3975   -3.8442 C.3       1 <0>         0.0931
     27 O5         -9.0576  -14.8603   -2.6491 O.3       1 <0>        -0.5722
     28 C20        -6.6485  -10.8892    1.4442 C.3       1 <0>         0.1482
     29 H2         -7.4895  -10.5406    2.0435 H         1 <0>         0.1161
     30 C21        -5.3620  -10.3726    2.0351 C.ar      1 <0>        -0.1187
     31 C22        -4.1629  -10.9855    1.7231 C.ar      1 <0>        -0.0860
     32 C23        -2.9829  -10.5117    2.2652 C.ar      1 <0>        -0.1049
     33 C24        -3.0019   -9.4247    3.1190 C.ar      1 <0>        -0.1038
     34 C25        -4.2009   -8.8112    3.4303 C.ar      1 <0>        -0.1142
     35 C26        -5.3805   -9.2824    2.8849 C.ar      1 <0>        -0.1082
     36 O6         -6.6291  -12.3181    1.4363 O.3       1 <0>        -0.5454
     37 H3          1.0039    1.9031    0.0027 H         1 <0>         0.0548
     38 H4         -0.5459    1.8868   -0.8726 H         1 <0>         0.0535
     39 H5         -0.5289    1.8773    0.9072 H         1 <0>         0.0537
     40 H6          0.5123   -0.3556   -0.8948 H         1 <0>         0.0604
     41 H7          0.5293   -0.3651    0.8851 H         1 <0>         0.0607
     42 H8         -1.9435   -0.1821    0.9097 H         1 <0>         0.0608
     43 H9         -1.9605   -0.1726   -0.8702 H         1 <0>         0.0605
     44 H10        -0.9024   -2.4150   -0.8923 H         1 <0>         0.0609
     45 H11        -0.8854   -2.4246    0.8875 H         1 <0>         0.0612
     46 H12        -3.3581   -2.2415    0.9121 H         1 <0>         0.0610
     47 H13        -3.3751   -2.2320   -0.8677 H         1 <0>         0.0605
     48 H14        -2.3170   -4.4744   -0.8899 H         1 <0>         0.0618
     49 H15        -2.3000   -4.4840    0.8900 H         1 <0>         0.0625
     50 H16        -4.7728   -4.3010    0.9146 H         1 <0>         0.0627
     51 H17        -4.7898   -4.2914   -0.8653 H         1 <0>         0.0614
     52 H18        -3.7316   -6.5338   -0.8874 H         1 <0>         0.0691
     53 H19        -3.7146   -6.5434    0.8924 H         1 <0>         0.0722
     54 H20        -6.1874   -6.3604    0.9170 H         1 <0>         0.0970
     55 H21        -6.2044   -6.3508   -0.8628 H         1 <0>         0.0931
     56 H22        -7.6612   -8.4349    0.0299 H         1 <0>         0.4003
     57 H23        -8.0503  -11.9830   -0.6768 H         1 <0>         0.1575
     58 H24        -8.9339  -10.6242    0.0588 H         1 <0>         0.1420
     59 H25        -8.3473   -9.3027   -1.8375 H         1 <0>         0.4245
     60 H26       -10.3749  -10.6102   -1.8060 H         1 <0>         0.1603
     61 H27        -8.9823  -12.8843   -1.9365 H         1 <0>         0.1548
     62 H28        -9.7942  -12.1287   -5.7546 H         1 <0>         0.0956
     63 H29       -11.8301  -10.8994   -3.8493 H         1 <0>         0.0875
     64 H30       -10.0934   -9.0621   -3.6364 H         1 <0>         0.1031
     65 H31        -8.7546   -9.7254   -5.5027 H         1 <0>         0.4159
     66 H32       -12.0844  -10.4838   -6.1960 H         1 <0>         0.4063
     67 H33       -11.4105  -13.8779   -5.6632 H         1 <0>         0.3922
     68 H34       -10.6659  -14.8718   -3.9460 H         1 <0>         0.0770
     69 H35        -9.0707  -14.6517   -4.7045 H         1 <0>         0.0747
     70 H36        -8.9142  -15.8163   -2.6249 H         1 <0>         0.3993
     71 H37        -4.1480  -11.8347    1.0560 H         1 <0>         0.1116
     72 H38        -2.0461  -10.9909    2.0219 H         1 <0>         0.1221
     73 H39        -2.0801   -9.0549    3.5431 H         1 <0>         0.1227
     74 H40        -4.2159   -7.9622    4.0977 H         1 <0>         0.1217
     75 H41        -6.3168   -8.8009    3.1252 H         1 <0>         0.1143
     76 H42        -5.9051  -12.6988    0.9206 H         1 <0>         0.3819
     77 H43        -7.5294  -10.5605   -2.5185 H         1 <0>         0.4379
@<TRIPOS>BOND
     1    1    2 1
     2    1   37 1
     3    1   38 1
     4    1   39 1
     5    2    3 1
     6    2   40 1
     7    2   41 1
     8    3    4 1
     9    3   42 1
    10    3   43 1
    11    4    5 1
    12    4   44 1
    13    4   45 1
    14    5    6 1
    15    5   46 1
    16    5   47 1
    17    6    7 1
    18    6   48 1
    19    6   49 1
    20    7    8 1
    21    7   50 1
    22    7   51 1
    23    8    9 1
    24    8   52 1
    25    8   53 1
    26    9   10 1
    27    9   54 1
    28    9   55 1
    29   10   11 2
    30   10   12 am
    31   12   13 1
    32   12   56 1
    33   13   14 1
    34   13   15 1
    35   13   28 1
    36   15   16 1
    37   15   57 1
    38   15   58 1
    39   16   17 1
    40   16   59 1
    41   16   77 1
    42   17   22 1
    43   17   18 1
    44   17   60 1
    45   18   19 2
    46   18   61 1
    47   19   20 1
    48   19   26 1
    49   20   21 1
    50   20   25 1
    51   20   62 1
    52   21   22 1
    53   21   24 1
    54   21   63 1
    55   22   23 1
    56   22   64 1
    57   23   65 1
    58   24   66 1
    59   25   67 1
    60   26   27 1
    61   26   68 1
    62   26   69 1
    63   27   70 1
    64   28   29 1
    65   28   30 1
    66   28   36 1
    67   30   35 ar
    68   30   31 ar
    69   31   32 ar
    70   31   71 1
    71   32   33 ar
    72   32   72 1
    73   33   34 ar
    74   33   73 1
    75   34   35 ar
    76   34   74 1
    77   35   75 1
    78   36   76 1
@<TRIPOS>MOLECULE
CHEMBL57496__5
   76    77     0     0     0
SMALL
USER_CHARGES

@<TRIPOS>ATOM
      1 C1         -0.0187    1.5258    0.0104 C.3       1 <0>        -0.1541
      2 C2          0.0021   -0.0041    0.0020 C.3       1 <0>        -0.1263
      3 C3          0.7182   -0.4975   -1.2568 C.3       1 <0>        -0.1209
      4 C4          0.7390   -2.0273   -1.2652 C.3       1 <0>        -0.1215
      5 C5          1.4551   -2.5207   -2.5240 C.3       1 <0>        -0.1197
      6 C6          1.4758   -4.0506   -2.5324 C.3       1 <0>        -0.1196
      7 C7          2.1920   -4.5440   -3.7912 C.3       1 <0>        -0.1193
      8 C8          2.2127   -6.0738   -3.7996 C.3       1 <0>        -0.1013
      9 C9          2.9289   -6.5673   -5.0584 C.3       1 <0>        -0.1392
     10 C10         2.9493   -8.0741   -5.0667 C.2       1 <0>         0.5143
     11 O1          2.4411   -8.6925   -4.1555 O.2       1 <0>        -0.5102
     12 N1          3.5323   -8.7345   -6.0867 N.am      1 <0>        -0.7277
     13 C11         3.5522  -10.1994   -6.0948 C.3       1 <0>         0.1256
     14 H1          3.6564  -10.5669   -5.0739 H         1 <0>         0.1071
     15 C12         4.7327  -10.6888   -6.9361 C.3       1 <0>         0.0425
     16 N2          5.9753  -10.0889   -6.4321 N.3       1 <0>        -0.6588
     17 C13         7.1327  -10.5372   -7.2177 C.3       1 <0>         0.1241
     18 C14         7.6115  -11.8576   -6.6889 C.2       1 <0>        -0.0915
     19 C15         8.8581  -12.1618   -6.5191 C.2       1 <0>        -0.1695
     20 C16         9.9985  -11.2332   -6.8180 C.3       1 <0>         0.1240
     21 C17         9.5259  -10.0917   -7.7208 C.3       1 <0>         0.0864
     22 C18         8.2479   -9.4941   -7.1184 C.3       1 <0>         0.1171
     23 O2          8.4731   -9.1606   -5.7473 O.3       1 <0>        -0.5390
     24 O3         10.5386   -9.0860   -7.7935 O.3       1 <0>        -0.5621
     25 O4         11.0393  -11.9580   -7.4764 O.3       1 <0>        -0.5656
     26 C19         9.1847  -13.5340   -5.9885 C.3       1 <0>         0.1107
     27 O5          7.9738  -14.2604   -5.7692 O.3       1 <0>        -0.5665
     28 C20         2.2461  -10.7238   -6.6948 C.3       1 <0>         0.1387
     29 H2          2.1419  -10.3563   -7.7156 H         1 <0>         0.0613
     30 C21         1.0834  -10.2418   -5.8661 C.ar      1 <0>        -0.0688
     31 C22         0.7639  -10.8834   -4.6841 C.ar      1 <0>        -0.0642
     32 C23        -0.3026  -10.4413   -3.9240 C.ar      1 <0>        -0.1149
     33 C24        -1.0495   -9.3571   -4.3456 C.ar      1 <0>        -0.1128
     34 C25        -0.7295   -8.7149   -5.5271 C.ar      1 <0>        -0.1218
     35 C26         0.3397   -9.1544   -6.2851 C.ar      1 <0>        -0.1124
     36 O6          2.2655  -12.1527   -6.7026 O.3       1 <0>        -0.5523
     37 H3          1.0039    1.9031    0.0027 H         1 <0>         0.0532
     38 H4         -0.5459    1.8868   -0.8726 H         1 <0>         0.0531
     39 H5         -0.5289    1.8773    0.9072 H         1 <0>         0.0533
     40 H6          0.5293   -0.3651    0.8851 H         1 <0>         0.0604
     41 H7         -1.0205   -0.3814    0.0098 H         1 <0>         0.0603
     42 H8          0.1910   -0.1364   -2.1398 H         1 <0>         0.0602
     43 H9          1.7408   -0.1202   -1.2645 H         1 <0>         0.0603
     44 H10         1.2661   -2.3884   -0.3821 H         1 <0>         0.0608
     45 H11        -0.2836   -2.4046   -1.2575 H         1 <0>         0.0607
     46 H12         0.9279   -2.1597   -3.4071 H         1 <0>         0.0600
     47 H13         2.4777   -2.1435   -2.5317 H         1 <0>         0.0602
     48 H14         2.0030   -4.4117   -1.6494 H         1 <0>         0.0616
     49 H15         0.4533   -4.4279   -2.5247 H         1 <0>         0.0615
     50 H16         1.6648   -4.1829   -4.6743 H         1 <0>         0.0602
     51 H17         3.2146   -4.1667   -3.7990 H         1 <0>         0.0605
     52 H18         2.7399   -6.4349   -2.9166 H         1 <0>         0.0683
     53 H19         1.1901   -6.4511   -3.7919 H         1 <0>         0.0698
     54 H20         2.4017   -6.2062   -5.9415 H         1 <0>         0.0882
     55 H21         3.9515   -6.1900   -5.0662 H         1 <0>         0.0894
     56 H22         3.9388   -8.2400   -6.8155 H         1 <0>         0.3941
     57 H23         4.8005  -11.7747   -6.8700 H         1 <0>         0.0918
     58 H24         4.5838  -10.3967   -7.9756 H         1 <0>         0.0376
     59 H25         5.9128   -9.0819   -6.4227 H         1 <0>         0.3486
     60 H26         6.8383  -10.6533   -8.2607 H         1 <0>         0.0710
     61 H27         6.8698  -12.6000   -6.4340 H         1 <0>         0.1297
     62 H28        10.3827  -10.8207   -5.8851 H         1 <0>         0.0792
     63 H29         9.3153  -10.4767   -8.7185 H         1 <0>         0.0741
     64 H30         7.9641   -8.6004   -7.6742 H         1 <0>         0.0704
     65 H31         9.1689   -8.5030   -5.6116 H         1 <0>         0.3827
     66 H32        11.3803   -9.4005   -8.1508 H         1 <0>         0.3920
     67 H33        11.3962  -12.6921   -6.9580 H         1 <0>         0.3823
     68 H34         9.8016  -14.0662   -6.7125 H         1 <0>         0.0574
     69 H35         9.7275  -13.4402   -5.0479 H         1 <0>         0.0559
     70 H36         8.1082  -15.1548   -5.4268 H         1 <0>         0.3847
     71 H37         1.3474  -11.7305   -4.3547 H         1 <0>         0.1179
     72 H38        -0.5526  -10.9430   -3.0008 H         1 <0>         0.1167
     73 H39        -1.8832   -9.0121   -3.7521 H         1 <0>         0.1161
     74 H40        -1.3132   -7.8681   -5.8567 H         1 <0>         0.1162
     75 H41         0.5920   -8.6504   -7.2063 H         1 <0>         0.1105
     76 H42         2.9895  -12.5334   -7.2183 H         1 <0>         0.3774
@<TRIPOS>BOND
     1    1    2 1
     2    1   37 1
     3    1   38 1
     4    1   39 1
     5    2    3 1
     6    2   40 1
     7    2   41 1
     8    3    4 1
     9    3   42 1
    10    3   43 1
    11    4    5 1
    12    4   44 1
    13    4   45 1
    14    5    6 1
    15    5   46 1
    16    5   47 1
    17    6    7 1
    18    6   48 1
    19    6   49 1
    20    7    8 1
    21    7   50 1
    22    7   51 1
    23    8    9 1
    24    8   52 1
    25    8   53 1
    26    9   10 1
    27    9   54 1
    28    9   55 1
    29   10   11 2
    30   10   12 am
    31   12   13 1
    32   12   56 1
    33   13   14 1
    34   13   15 1
    35   13   28 1
    36   15   16 1
    37   15   57 1
    38   15   58 1
    39   16   17 1
    40   16   59 1
    41   17   22 1
    42   17   18 1
    43   17   60 1
    44   18   19 2
    45   18   61 1
    46   19   20 1
    47   19   26 1
    48   20   21 1
    49   20   25 1
    50   20   62 1
    51   21   22 1
    52   21   24 1
    53   21   63 1
    54   22   23 1
    55   22   64 1
    56   23   65 1
    57   24   66 1
    58   25   67 1
    59   26   27 1
    60   26   68 1
    61   26   69 1
    62   27   70 1
    63   28   29 1
    64   28   30 1
    65   28   36 1
    66   30   35 ar
    67   30   31 ar
    68   31   32 ar
    69   31   71 1
    70   32   33 ar
    71   32   72 1
    72   33   34 ar
    73   33   73 1
    74   34   35 ar
    75   34   74 1
    76   35   75 1
    77   36   76 1
@<TRIPOS>MOLECULE
CHEMBL57496__6
   77    78     0     0     0
SMALL
USER_CHARGES

@<TRIPOS>ATOM
      1 C1         -0.0187    1.5258    0.0104 C.3       1 <0>        -0.1550
      2 C2          0.0021   -0.0041    0.0020 C.3       1 <0>        -0.1263
      3 C3         -1.4333   -0.5336    0.0129 C.3       1 <0>        -0.1211
      4 C4         -1.4126   -2.0635    0.0045 C.3       1 <0>        -0.1217
      5 C5         -2.8479   -2.5931    0.0153 C.3       1 <0>        -0.1202
      6 C6         -2.8272   -4.1229    0.0069 C.3       1 <0>        -0.1199
      7 C7         -4.2626   -4.6525    0.0178 C.3       1 <0>        -0.1201
      8 C8         -4.2418   -6.1823    0.0094 C.3       1 <0>        -0.1035
      9 C9         -5.6772   -6.7119    0.0202 C.3       1 <0>        -0.1398
     10 C10        -5.6568   -8.2187    0.0119 C.2       1 <0>         0.5149
     11 O1         -4.5984   -8.8108   -0.0014 O.2       1 <0>        -0.4913
     12 N1         -6.8147   -8.9084    0.0193 N.am      1 <0>        -0.7518
     13 C11        -6.7948  -10.3733    0.0112 C.3       1 <0>         0.0954
     14 H1         -5.9538  -10.7220   -0.5882 H         1 <0>         0.1161
     15 C12        -8.1009  -10.8977   -0.5888 C.3       1 <0>        -0.0183
     16 N2         -8.3005  -10.3073   -1.9190 N.4       1 <0>        -0.5003
     17 C13        -9.5545  -10.8109   -2.4951 C.3       1 <0>         0.0810
     18 C14        -9.4425  -12.2914   -2.7131 C.2       1 <0>        -0.2035
     19 C15        -9.8628  -12.9021   -3.7742 C.2       1 <0>        -0.0815
     20 C16       -10.5113  -12.2135   -4.9393 C.3       1 <0>         0.0983
     21 C17       -10.9819  -10.8160   -4.5303 C.3       1 <0>         0.0951
     22 C18        -9.8231  -10.1013   -3.8240 C.3       1 <0>         0.0981
     23 O2        -10.1774   -8.7389   -3.5780 O.3       1 <0>        -0.5580
     24 O3        -11.3639  -10.0784   -5.6931 O.3       1 <0>        -0.5543
     25 O4        -11.6335  -12.9815   -5.3787 O.3       1 <0>        -0.5490
     26 C19        -9.6898  -14.3975   -3.8442 C.3       1 <0>         0.0929
     27 O5         -9.0576  -14.8603   -2.6491 O.3       1 <0>        -0.5723
     28 C20        -6.6485  -10.8892    1.4442 C.3       1 <0>         0.1480
     29 H2         -7.4895  -10.5406    2.0435 H         1 <0>         0.1165
     30 C21        -5.3620  -10.3726    2.0351 C.ar      1 <0>        -0.1187
     31 C22        -4.1629  -10.9855    1.7231 C.ar      1 <0>        -0.0861
     32 C23        -2.9829  -10.5117    2.2652 C.ar      1 <0>        -0.1051
     33 C24        -3.0019   -9.4247    3.1190 C.ar      1 <0>        -0.1037
     34 C25        -4.2009   -8.8112    3.4303 C.ar      1 <0>        -0.1139
     35 C26        -5.3805   -9.2824    2.8849 C.ar      1 <0>        -0.1079
     36 O6         -6.6291  -12.3181    1.4363 O.3       1 <0>        -0.5452
     37 H3          1.0039    1.9031    0.0027 H         1 <0>         0.0548
     38 H4         -0.5459    1.8868   -0.8726 H         1 <0>         0.0535
     39 H5         -0.5289    1.8773    0.9072 H         1 <0>         0.0537
     40 H6          0.5123   -0.3556   -0.8948 H         1 <0>         0.0604
     41 H7          0.5293   -0.3651    0.8851 H         1 <0>         0.0606
     42 H8         -1.9435   -0.1821    0.9097 H         1 <0>         0.0609
     43 H9         -1.9605   -0.1726   -0.8702 H         1 <0>         0.0605
     44 H10        -0.9024   -2.4150   -0.8923 H         1 <0>         0.0608
     45 H11        -0.8854   -2.4246    0.8875 H         1 <0>         0.0612
     46 H12        -3.3581   -2.2415    0.9121 H         1 <0>         0.0611
     47 H13        -3.3751   -2.2320   -0.8677 H         1 <0>         0.0605
     48 H14        -2.3170   -4.4744   -0.8899 H         1 <0>         0.0616
     49 H15        -2.3000   -4.4840    0.8900 H         1 <0>         0.0624
     50 H16        -4.7728   -4.3010    0.9146 H         1 <0>         0.0629
     51 H17        -4.7898   -4.2914   -0.8653 H         1 <0>         0.0616
     52 H18        -3.7316   -6.5338   -0.8874 H         1 <0>         0.0688
     53 H19        -3.7146   -6.5434    0.8924 H         1 <0>         0.0721
     54 H20        -6.1874   -6.3604    0.9170 H         1 <0>         0.0973
     55 H21        -6.2044   -6.3508   -0.8628 H         1 <0>         0.0938
     56 H22        -7.6612   -8.4349    0.0299 H         1 <0>         0.4020
     57 H23        -8.0503  -11.9830   -0.6768 H         1 <0>         0.1578
     58 H24        -8.9339  -10.6242    0.0588 H         1 <0>         0.1432
     59 H25        -8.3473   -9.3027   -1.8375 H         1 <0>         0.4325
     60 H26       -10.3749  -10.6102   -1.8060 H         1 <0>         0.1592
     61 H27        -8.9823  -12.8843   -1.9365 H         1 <0>         0.1612
     62 H28        -9.7927  -12.1286   -5.7545 H         1 <0>         0.0939
     63 H29       -11.8299  -10.8993   -3.8506 H         1 <0>         0.0884
     64 H30        -8.9312  -10.1440   -4.4490 H         1 <0>         0.0901
     65 H31       -10.3614   -8.2296   -4.3791 H         1 <0>         0.4167
     66 H32       -12.0826  -10.4836   -6.1974 H         1 <0>         0.4075
     67 H33       -11.4091  -13.8777   -5.6644 H         1 <0>         0.3931
     68 H34       -10.6659  -14.8718   -3.9460 H         1 <0>         0.0793
     69 H35        -9.0707  -14.6517   -4.7045 H         1 <0>         0.0764
     70 H36        -8.9142  -15.8163   -2.6249 H         1 <0>         0.4007
     71 H37        -4.1480  -11.8347    1.0560 H         1 <0>         0.1114
     72 H38        -2.0461  -10.9909    2.0219 H         1 <0>         0.1220
     73 H39        -2.0801   -9.0549    3.5431 H         1 <0>         0.1227
     74 H40        -4.2159   -7.9622    4.0977 H         1 <0>         0.1219
     75 H41        -6.3168   -8.8009    3.1252 H         1 <0>         0.1146
     76 H42        -5.9051  -12.6988    0.9206 H         1 <0>         0.3814
     77 H43        -7.5294  -10.5605   -2.5185 H         1 <0>         0.4278
@<TRIPOS>BOND
     1    1    2 1
     2    1   37 1
     3    1   38 1
     4    1   39 1
     5    2    3 1
     6    2   40 1
     7    2   41 1
     8    3    4 1
     9    3   42 1
    10    3   43 1
    11    4    5 1
    12    4   44 1
    13    4   45 1
    14    5    6 1
    15    5   46 1
    16    5   47 1
    17    6    7 1
    18    6   48 1
    19    6   49 1
    20    7    8 1
    21    7   50 1
    22    7   51 1
    23    8    9 1
    24    8   52 1
    25    8   53 1
    26    9   10 1
    27    9   54 1
    28    9   55 1
    29   10   11 2
    30   10   12 am
    31   12   13 1
    32   12   56 1
    33   13   14 1
    34   13   15 1
    35   13   28 1
    36   15   16 1
    37   15   57 1
    38   15   58 1
    39   16   17 1
    40   16   59 1
    41   16   77 1
    42   17   22 1
    43   17   18 1
    44   17   60 1
    45   18   19 2
    46   18   61 1
    47   19   20 1
    48   19   26 1
    49   20   21 1
    50   20   25 1
    51   20   62 1
    52   21   22 1
    53   21   24 1
    54   21   63 1
    55   22   23 1
    56   22   64 1
    57   23   65 1
    58   24   66 1
    59   25   67 1
    60   26   27 1
    61   26   68 1
    62   26   69 1
    63   27   70 1
    64   28   29 1
    65   28   30 1
    66   28   36 1
    67   30   35 ar
    68   30   31 ar
    69   31   32 ar
    70   31   71 1
    71   32   33 ar
    72   32   72 1
    73   33   34 ar
    74   33   73 1
    75   34   35 ar
    76   34   74 1
    77   35   75 1
    78   36   76 1
@<TRIPOS>MOLECULE
CHEMBL57496__7
   76    77     0     0     0
SMALL
USER_CHARGES

@<TRIPOS>ATOM
      1 C1         -0.0187    1.5258    0.0104 C.3       1 <0>        -0.1541
      2 C2          0.0021   -0.0041    0.0020 C.3       1 <0>        -0.1263
      3 C3          0.7182   -0.4975   -1.2568 C.3       1 <0>        -0.1209
      4 C4          0.7390   -2.0273   -1.2652 C.3       1 <0>        -0.1215
      5 C5          1.4551   -2.5207   -2.5240 C.3       1 <0>        -0.1198
      6 C6          1.4758   -4.0506   -2.5324 C.3       1 <0>        -0.1195
      7 C7          2.1920   -4.5440   -3.7912 C.3       1 <0>        -0.1195
      8 C8          2.2127   -6.0738   -3.7996 C.3       1 <0>        -0.1011
      9 C9          2.9289   -6.5673   -5.0584 C.3       1 <0>        -0.1396
     10 C10         2.9493   -8.0741   -5.0667 C.2       1 <0>         0.5139
     11 O1          2.4411   -8.6925   -4.1555 O.2       1 <0>        -0.5116
     12 N1          3.5323   -8.7345   -6.0867 N.am      1 <0>        -0.7277
     13 C11         3.5522  -10.1994   -6.0948 C.3       1 <0>         0.1251
     14 H1          3.6564  -10.5669   -5.0739 H         1 <0>         0.1064
     15 C12         4.7327  -10.6888   -6.9361 C.3       1 <0>         0.0446
     16 N2          5.9753  -10.0889   -6.4321 N.3       1 <0>        -0.6695
     17 C13         7.1327  -10.5372   -7.2177 C.3       1 <0>         0.1243
     18 C14         7.6115  -11.8576   -6.6889 C.2       1 <0>        -0.0928
     19 C15         8.8581  -12.1618   -6.5191 C.2       1 <0>        -0.1775
     20 C16         9.9985  -11.2329   -6.8171 C.3       1 <0>         0.1181
     21 C17         9.5262  -10.0913   -7.7200 C.3       1 <0>         0.0899
     22 C18         8.2479   -9.4941   -7.1184 C.3       1 <0>         0.1167
     23 O2          7.8759   -8.3224   -7.8471 O.3       1 <0>        -0.5597
     24 O3         10.5386   -9.0854   -7.7919 O.3       1 <0>        -0.5615
     25 O4         11.0399  -11.9573   -7.4750 O.3       1 <0>        -0.5606
     26 C19         9.1847  -13.5340   -5.9885 C.3       1 <0>         0.1105
     27 O5          7.9738  -14.2604   -5.7692 O.3       1 <0>        -0.5667
     28 C20         2.2461  -10.7238   -6.6948 C.3       1 <0>         0.1385
     29 H2          2.1419  -10.3563   -7.7156 H         1 <0>         0.0620
     30 C21         1.0834  -10.2418   -5.8661 C.ar      1 <0>        -0.0686
     31 C22         0.7639  -10.8834   -4.6841 C.ar      1 <0>        -0.0644
     32 C23        -0.3026  -10.4413   -3.9240 C.ar      1 <0>        -0.1152
     33 C24        -1.0495   -9.3571   -4.3456 C.ar      1 <0>        -0.1128
     34 C25        -0.7295   -8.7149   -5.5271 C.ar      1 <0>        -0.1216
     35 C26         0.3397   -9.1544   -6.2851 C.ar      1 <0>        -0.1122
     36 O6          2.2655  -12.1527   -6.7026 O.3       1 <0>        -0.5525
     37 H3          1.0039    1.9031    0.0027 H         1 <0>         0.0532
     38 H4         -0.5459    1.8868   -0.8726 H         1 <0>         0.0532
     39 H5         -0.5289    1.8773    0.9072 H         1 <0>         0.0533
     40 H6          0.5293   -0.3651    0.8851 H         1 <0>         0.0603
     41 H7         -1.0205   -0.3814    0.0098 H         1 <0>         0.0603
     42 H8          0.1910   -0.1364   -2.1398 H         1 <0>         0.0603
     43 H9          1.7408   -0.1202   -1.2645 H         1 <0>         0.0603
     44 H10         1.2661   -2.3884   -0.3821 H         1 <0>         0.0607
     45 H11        -0.2836   -2.4046   -1.2575 H         1 <0>         0.0607
     46 H12         0.9279   -2.1597   -3.4071 H         1 <0>         0.0601
     47 H13         2.4777   -2.1435   -2.5317 H         1 <0>         0.0601
     48 H14         2.0030   -4.4117   -1.6494 H         1 <0>         0.0614
     49 H15         0.4533   -4.4279   -2.5247 H         1 <0>         0.0615
     50 H16         1.6648   -4.1829   -4.6743 H         1 <0>         0.0605
     51 H17         3.2146   -4.1667   -3.7990 H         1 <0>         0.0605
     52 H18         2.7399   -6.4349   -2.9166 H         1 <0>         0.0678
     53 H19         1.1901   -6.4511   -3.7919 H         1 <0>         0.0699
     54 H20         2.4017   -6.2062   -5.9415 H         1 <0>         0.0888
     55 H21         3.9515   -6.1900   -5.0662 H         1 <0>         0.0896
     56 H22         3.9388   -8.2400   -6.8155 H         1 <0>         0.3965
     57 H23         4.8005  -11.7747   -6.8700 H         1 <0>         0.0913
     58 H24         4.5838  -10.3967   -7.9756 H         1 <0>         0.0408
     59 H25         5.9128   -9.0819   -6.4227 H         1 <0>         0.3532
     60 H26         6.8383  -10.6533   -8.2607 H         1 <0>         0.0703
     61 H27         6.8698  -12.6000   -6.4340 H         1 <0>         0.1363
     62 H28        10.3819  -10.8205   -5.8839 H         1 <0>         0.0767
     63 H29         9.3164  -10.4762   -8.7180 H         1 <0>         0.0750
     64 H30         8.4196   -9.2397   -6.0725 H         1 <0>         0.0767
     65 H31         8.5391   -7.6190   -7.8260 H         1 <0>         0.3936
     66 H32        11.3806   -9.3996   -8.1487 H         1 <0>         0.3930
     67 H33        11.3966  -12.6914   -6.9563 H         1 <0>         0.3832
     68 H34         9.8016  -14.0662   -6.7125 H         1 <0>         0.0597
     69 H35         9.7275  -13.4402   -5.0479 H         1 <0>         0.0574
     70 H36         8.1082  -15.1548   -5.4268 H         1 <0>         0.3861
     71 H37         1.3474  -11.7305   -4.3547 H         1 <0>         0.1177
     72 H38        -0.5526  -10.9430   -3.0008 H         1 <0>         0.1165
     73 H39        -1.8832   -9.0121   -3.7521 H         1 <0>         0.1161
     74 H40        -1.3132   -7.8681   -5.8567 H         1 <0>         0.1163
     75 H41         0.5920   -8.6504   -7.2063 H         1 <0>         0.1108
     76 H42         2.9895  -12.5334   -7.2183 H         1 <0>         0.3774
@<TRIPOS>BOND
     1    1    2 1
     2    1   37 1
     3    1   38 1
     4    1   39 1
     5    2    3 1
     6    2   40 1
     7    2   41 1
     8    3    4 1
     9    3   42 1
    10    3   43 1
    11    4    5 1
    12    4   44 1
    13    4   45 1
    14    5    6 1
    15    5   46 1
    16    5   47 1
    17    6    7 1
    18    6   48 1
    19    6   49 1
    20    7    8 1
    21    7   50 1
    22    7   51 1
    23    8    9 1
    24    8   52 1
    25    8   53 1
    26    9   10 1
    27    9   54 1
    28    9   55 1
    29   10   11 2
    30   10   12 am
    31   12   13 1
    32   12   56 1
    33   13   14 1
    34   13   15 1
    35   13   28 1
    36   15   16 1
    37   15   57 1
    38   15   58 1
    39   16   17 1
    40   16   59 1
    41   17   22 1
    42   17   18 1
    43   17   60 1
    44   18   19 2
    45   18   61 1
    46   19   20 1
    47   19   26 1
    48   20   21 1
    49   20   25 1
    50   20   62 1
    51   21   22 1
    52   21   24 1
    53   21   63 1
    54   22   23 1
    55   22   64 1
    56   23   65 1
    57   24   66 1
    58   25   67 1
    59   26   27 1
    60   26   68 1
    61   26   69 1
    62   27   70 1
    63   28   29 1
    64   28   30 1
    65   28   36 1
    66   30   35 ar
    67   30   31 ar
    68   31   32 ar
    69   31   71 1
    70   32   33 ar
    71   32   72 1
    72   33   34 ar
    73   33   73 1
    74   34   35 ar
    75   34   74 1
    76   35   75 1
    77   36   76 1
@<TRIPOS>MOLECULE
CHEMBL57496__8
   77    78     0     0     0
SMALL
USER_CHARGES

@<TRIPOS>ATOM
      1 C1         -0.0187    1.5258    0.0104 C.3       1 <0>        -0.1550
      2 C2          0.0021   -0.0041    0.0020 C.3       1 <0>        -0.1264
      3 C3         -1.4333   -0.5336    0.0129 C.3       1 <0>        -0.1211
      4 C4         -1.4126   -2.0635    0.0045 C.3       1 <0>        -0.1218
      5 C5         -2.8479   -2.5931    0.0153 C.3       1 <0>        -0.1201
      6 C6         -2.8272   -4.1229    0.0069 C.3       1 <0>        -0.1201
      7 C7         -4.2626   -4.6525    0.0178 C.3       1 <0>        -0.1198
      8 C8         -4.2418   -6.1823    0.0094 C.3       1 <0>        -0.1038
      9 C9         -5.6772   -6.7119    0.0202 C.3       1 <0>        -0.1392
     10 C10        -5.6568   -8.2187    0.0119 C.2       1 <0>         0.5145
     11 O1         -4.5984   -8.8108   -0.0014 O.2       1 <0>        -0.4906
     12 N1         -6.8147   -8.9084    0.0193 N.am      1 <0>        -0.7512
     13 C11        -6.7948  -10.3733    0.0112 C.3       1 <0>         0.0961
     14 H1         -5.9538  -10.7220   -0.5882 H         1 <0>         0.1156
     15 C12        -8.1009  -10.8977   -0.5888 C.3       1 <0>        -0.0186
     16 N2         -8.3005  -10.3073   -1.9190 N.4       1 <0>        -0.4987
     17 C13        -9.5545  -10.8109   -2.4951 C.3       1 <0>         0.0855
     18 C14        -9.4425  -12.2914   -2.7131 C.2       1 <0>        -0.1778
     19 C15        -9.8628  -12.9021   -3.7742 C.2       1 <0>        -0.0859
     20 C16       -10.5122  -12.2136   -4.9389 C.3       1 <0>         0.1094
     21 C17       -10.9825  -10.8161   -4.5297 C.3       1 <0>         0.0863
     22 C18        -9.8231  -10.1013   -3.8240 C.3       1 <0>         0.0975
     23 O2         -8.6538  -10.1573   -4.6434 O.3       1 <0>        -0.5473
     24 O3        -12.0936  -10.9253   -3.6377 O.3       1 <0>        -0.5521
     25 O4         -9.5709  -12.1024   -6.0083 O.3       1 <0>        -0.5395
     26 C19        -9.6898  -14.3975   -3.8442 C.3       1 <0>         0.0972
     27 O5         -9.0576  -14.8603   -2.6491 O.3       1 <0>        -0.5732
     28 C20        -6.6485  -10.8892    1.4442 C.3       1 <0>         0.1479
     29 H2         -7.4895  -10.5406    2.0435 H         1 <0>         0.1159
     30 C21        -5.3620  -10.3726    2.0351 C.ar      1 <0>        -0.1181
     31 C22        -4.1629  -10.9855    1.7231 C.ar      1 <0>        -0.0860
     32 C23        -2.9829  -10.5117    2.2652 C.ar      1 <0>        -0.1049
     33 C24        -3.0019   -9.4247    3.1190 C.ar      1 <0>        -0.1041
     34 C25        -4.2009   -8.8112    3.4303 C.ar      1 <0>        -0.1143
     35 C26        -5.3805   -9.2824    2.8849 C.ar      1 <0>        -0.1082
     36 O6         -6.6291  -12.3181    1.4363 O.3       1 <0>        -0.5454
     37 H3          1.0039    1.9031    0.0027 H         1 <0>         0.0548
     38 H4         -0.5459    1.8868   -0.8726 H         1 <0>         0.0535
     39 H5         -0.5289    1.8773    0.9072 H         1 <0>         0.0537
     40 H6          0.5123   -0.3556   -0.8948 H         1 <0>         0.0604
     41 H7          0.5293   -0.3651    0.8851 H         1 <0>         0.0607
     42 H8         -1.9435   -0.1821    0.9097 H         1 <0>         0.0608
     43 H9         -1.9605   -0.1726   -0.8702 H         1 <0>         0.0604
     44 H10        -0.9024   -2.4150   -0.8923 H         1 <0>         0.0609
     45 H11        -0.8854   -2.4246    0.8875 H         1 <0>         0.0612
     46 H12        -3.3581   -2.2415    0.9121 H         1 <0>         0.0610
     47 H13        -3.3751   -2.2320   -0.8677 H         1 <0>         0.0604
     48 H14        -2.3170   -4.4744   -0.8899 H         1 <0>         0.0618
     49 H15        -2.3000   -4.4840    0.8900 H         1 <0>         0.0625
     50 H16        -4.7728   -4.3010    0.9146 H         1 <0>         0.0627
     51 H17        -4.7898   -4.2914   -0.8653 H         1 <0>         0.0613
     52 H18        -3.7316   -6.5338   -0.8874 H         1 <0>         0.0691
     53 H19        -3.7146   -6.5434    0.8924 H         1 <0>         0.0722
     54 H20        -6.1874   -6.3604    0.9170 H         1 <0>         0.0968
     55 H21        -6.2044   -6.3508   -0.8628 H         1 <0>         0.0929
     56 H22        -7.6612   -8.4349    0.0299 H         1 <0>         0.4004
     57 H23        -8.0503  -11.9830   -0.6768 H         1 <0>         0.1558
     58 H24        -8.9339  -10.6242    0.0588 H         1 <0>         0.1408
     59 H25        -8.3473   -9.3027   -1.8375 H         1 <0>         0.4229
     60 H26       -10.3749  -10.6102   -1.8060 H         1 <0>         0.1618
     61 H27        -8.9823  -12.8843   -1.9365 H         1 <0>         0.1496
     62 H28       -11.3684  -12.7995   -5.2734 H         1 <0>         0.0792
     63 H29       -11.2745  -10.2536   -5.4164 H         1 <0>         0.0944
     64 H30       -10.0934   -9.0621   -3.6364 H         1 <0>         0.0943
     65 H31        -8.7546   -9.7254   -5.5027 H         1 <0>         0.4105
     66 H32       -12.8575  -11.3826   -4.0151 H         1 <0>         0.4003
     67 H33        -9.2364  -12.9515   -6.3278 H         1 <0>         0.3901
     68 H34       -10.6659  -14.8718   -3.9460 H         1 <0>         0.0718
     69 H35        -9.0707  -14.6517   -4.7045 H         1 <0>         0.0702
     70 H36        -8.9142  -15.8163   -2.6249 H         1 <0>         0.3979
     71 H37        -4.1480  -11.8347    1.0560 H         1 <0>         0.1116
     72 H38        -2.0461  -10.9909    2.0219 H         1 <0>         0.1220
     73 H39        -2.0801   -9.0549    3.5431 H         1 <0>         0.1226
     74 H40        -4.2159   -7.9622    4.0977 H         1 <0>         0.1216
     75 H41        -6.3168   -8.8009    3.1252 H         1 <0>         0.1143
     76 H42        -5.9051  -12.6988    0.9206 H         1 <0>         0.3816
     77 H43        -7.5294  -10.5605   -2.5185 H         1 <0>         0.4362
@<TRIPOS>BOND
     1    1    2 1
     2    1   37 1
     3    1   38 1
     4    1   39 1
     5    2    3 1
     6    2   40 1
     7    2   41 1
     8    3    4 1
     9    3   42 1
    10    3   43 1
    11    4    5 1
    12    4   44 1
    13    4   45 1
    14    5    6 1
    15    5   46 1
    16    5   47 1
    17    6    7 1
    18    6   48 1
    19    6   49 1
    20    7    8 1
    21    7   50 1
    22    7   51 1
    23    8    9 1
    24    8   52 1
    25    8   53 1
    26    9   10 1
    27    9   54 1
    28    9   55 1
    29   10   11 2
    30   10   12 am
    31   12   13 1
    32   12   56 1
    33   13   14 1
    34   13   15 1
    35   13   28 1
    36   15   16 1
    37   15   57 1
    38   15   58 1
    39   16   17 1
    40   16   59 1
    41   16   77 1
    42   17   22 1
    43   17   18 1
    44   17   60 1
    45   18   19 2
    46   18   61 1
    47   19   20 1
    48   19   26 1
    49   20   21 1
    50   20   25 1
    51   20   62 1
    52   21   22 1
    53   21   24 1
    54   21   63 1
    55   22   23 1
    56   22   64 1
    57   23   65 1
    58   24   66 1
    59   25   67 1
    60   26   27 1
    61   26   68 1
    62   26   69 1
    63   27   70 1
    64   28   29 1
    65   28   30 1
    66   28   36 1
    67   30   35 ar
    68   30   31 ar
    69   31   32 ar
    70   31   71 1
    71   32   33 ar
    72   32   72 1
    73   33   34 ar
    74   33   73 1
    75   34   35 ar
    76   34   74 1
    77   35   75 1
    78   36   76 1
@<TRIPOS>MOLECULE
CHEMBL57496__9
   76    77     0     0     0
SMALL
USER_CHARGES

@<TRIPOS>ATOM
      1 C1         -0.0187    1.5258    0.0104 C.3       1 <0>        -0.1541
      2 C2          0.0021   -0.0041    0.0020 C.3       1 <0>        -0.1264
      3 C3          0.7182   -0.4975   -1.2568 C.3       1 <0>        -0.1208
      4 C4          0.7390   -2.0273   -1.2652 C.3       1 <0>        -0.1215
      5 C5          1.4551   -2.5207   -2.5240 C.3       1 <0>        -0.1197
      6 C6          1.4758   -4.0506   -2.5324 C.3       1 <0>        -0.1196
      7 C7          2.1920   -4.5440   -3.7912 C.3       1 <0>        -0.1192
      8 C8          2.2127   -6.0738   -3.7996 C.3       1 <0>        -0.1012
      9 C9          2.9289   -6.5673   -5.0584 C.3       1 <0>        -0.1391
     10 C10         2.9493   -8.0741   -5.0667 C.2       1 <0>         0.5142
     11 O1          2.4411   -8.6925   -4.1555 O.2       1 <0>        -0.5109
     12 N1          3.5323   -8.7345   -6.0867 N.am      1 <0>        -0.7269
     13 C11         3.5522  -10.1994   -6.0948 C.3       1 <0>         0.1260
     14 H1          3.6564  -10.5669   -5.0739 H         1 <0>         0.1063
     15 C12         4.7327  -10.6888   -6.9361 C.3       1 <0>         0.0433
     16 N2          5.9753  -10.0889   -6.4321 N.3       1 <0>        -0.6622
     17 C13         7.1327  -10.5372   -7.2177 C.3       1 <0>         0.1289
     18 C14         7.6115  -11.8576   -6.6889 C.2       1 <0>        -0.0662
     19 C15         8.8581  -12.1618   -6.5191 C.2       1 <0>        -0.1825
     20 C16         9.9985  -11.2332   -6.8180 C.3       1 <0>         0.1302
     21 C17         9.5259  -10.0917   -7.7208 C.3       1 <0>         0.0810
     22 C18         8.2479   -9.4941   -7.1184 C.3       1 <0>         0.1156
     23 O2          8.4731   -9.1606   -5.7473 O.3       1 <0>        -0.5188
     24 O3          9.2499  -10.5965   -9.0288 O.3       1 <0>        -0.5491
     25 O4         10.5022  -10.6925   -5.5949 O.3       1 <0>        -0.5447
     26 C19         9.1847  -13.5340   -5.9885 C.3       1 <0>         0.1144
     27 O5          7.9738  -14.2604   -5.7692 O.3       1 <0>        -0.5672
     28 C20         2.2461  -10.7238   -6.6948 C.3       1 <0>         0.1384
     29 H2          2.1419  -10.3563   -7.7156 H         1 <0>         0.0611
     30 C21         1.0834  -10.2418   -5.8661 C.ar      1 <0>        -0.0681
     31 C22         0.7639  -10.8834   -4.6841 C.ar      1 <0>        -0.0642
     32 C23        -0.3026  -10.4413   -3.9240 C.ar      1 <0>        -0.1150
     33 C24        -1.0495   -9.3571   -4.3456 C.ar      1 <0>        -0.1131
     34 C25        -0.7295   -8.7149   -5.5271 C.ar      1 <0>        -0.1219
     35 C26         0.3397   -9.1544   -6.2851 C.ar      1 <0>        -0.1125
     36 O6          2.2655  -12.1527   -6.7026 O.3       1 <0>        -0.5527
     37 H3          1.0039    1.9031    0.0027 H         1 <0>         0.0532
     38 H4         -0.5459    1.8868   -0.8726 H         1 <0>         0.0531
     39 H5         -0.5289    1.8773    0.9072 H         1 <0>         0.0533
     40 H6          0.5293   -0.3651    0.8851 H         1 <0>         0.0604
     41 H7         -1.0205   -0.3814    0.0098 H         1 <0>         0.0603
     42 H8          0.1910   -0.1364   -2.1398 H         1 <0>         0.0602
     43 H9          1.7408   -0.1202   -1.2645 H         1 <0>         0.0603
     44 H10         1.2661   -2.3884   -0.3821 H         1 <0>         0.0608
     45 H11        -0.2836   -2.4046   -1.2575 H         1 <0>         0.0607
     46 H12         0.9279   -2.1597   -3.4071 H         1 <0>         0.0599
     47 H13         2.4777   -2.1435   -2.5317 H         1 <0>         0.0601
     48 H14         2.0030   -4.4117   -1.6494 H         1 <0>         0.0616
     49 H15         0.4533   -4.4279   -2.5247 H         1 <0>         0.0615
     50 H16         1.6648   -4.1829   -4.6743 H         1 <0>         0.0601
     51 H17         3.2146   -4.1667   -3.7990 H         1 <0>         0.0604
     52 H18         2.7399   -6.4349   -2.9166 H         1 <0>         0.0683
     53 H19         1.1901   -6.4511   -3.7919 H         1 <0>         0.0698
     54 H20         2.4017   -6.2062   -5.9415 H         1 <0>         0.0880
     55 H21         3.9515   -6.1900   -5.0662 H         1 <0>         0.0892
     56 H22         3.9388   -8.2400   -6.8155 H         1 <0>         0.3940
     57 H23         4.8005  -11.7747   -6.8700 H         1 <0>         0.0898
     58 H24         4.5838  -10.3967   -7.9756 H         1 <0>         0.0362
     59 H25         5.9128   -9.0819   -6.4227 H         1 <0>         0.3463
     60 H26         6.8383  -10.6533   -8.2607 H         1 <0>         0.0746
     61 H27         6.8698  -12.6000   -6.4340 H         1 <0>         0.1238
     62 H28        10.7924  -11.7860   -7.3203 H         1 <0>         0.0573
     63 H29        10.2983   -9.3246   -7.7762 H         1 <0>         0.0727
     64 H30         7.9641   -8.6004   -7.6742 H         1 <0>         0.0612
     65 H31         9.1689   -8.5030   -5.6116 H         1 <0>         0.3764
     66 H32        10.0123  -11.0039   -9.4622 H         1 <0>         0.3843
     67 H33        10.8303  -11.3589   -4.9758 H         1 <0>         0.3798
     68 H34         9.8016  -14.0662   -6.7125 H         1 <0>         0.0515
     69 H35         9.7275  -13.4402   -5.0479 H         1 <0>         0.0518
     70 H36         8.1082  -15.1548   -5.4268 H         1 <0>         0.3831
     71 H37         1.3474  -11.7305   -4.3547 H         1 <0>         0.1179
     72 H38        -0.5526  -10.9430   -3.0008 H         1 <0>         0.1166
     73 H39        -1.8832   -9.0121   -3.7521 H         1 <0>         0.1159
     74 H40        -1.3132   -7.8681   -5.8567 H         1 <0>         0.1160
     75 H41         0.5920   -8.6504   -7.2063 H         1 <0>         0.1104
     76 H42         2.9895  -12.5334   -7.2183 H         1 <0>         0.3777
@<TRIPOS>BOND
     1    1    2 1
     2    1   37 1
     3    1   38 1
     4    1   39 1
     5    2    3 1
     6    2   40 1
     7    2   41 1
     8    3    4 1
     9    3   42 1
    10    3   43 1
    11    4    5 1
    12    4   44 1
    13    4   45 1
    14    5    6 1
    15    5   46 1
    16    5   47 1
    17    6    7 1
    18    6   48 1
    19    6   49 1
    20    7    8 1
    21    7   50 1
    22    7   51 1
    23    8    9 1
    24    8   52 1
    25    8   53 1
    26    9   10 1
    27    9   54 1
    28    9   55 1
    29   10   11 2
    30   10   12 am
    31   12   13 1
    32   12   56 1
    33   13   14 1
    34   13   15 1
    35   13   28 1
    36   15   16 1
    37   15   57 1
    38   15   58 1
    39   16   17 1
    40   16   59 1
    41   17   22 1
    42   17   18 1
    43   17   60 1
    44   18   19 2
    45   18   61 1
    46   19   20 1
    47   19   26 1
    48   20   21 1
    49   20   25 1
    50   20   62 1
    51   21   22 1
    52   21   24 1
    53   21   63 1
    54   22   23 1
    55   22   64 1
    56   23   65 1
    57   24   66 1
    58   25   67 1
    59   26   27 1
    60   26   68 1
    61   26   69 1
    62   27   70 1
    63   28   29 1
    64   28   30 1
    65   28   36 1
    66   30   35 ar
    67   30   31 ar
    68   31   32 ar
    69   31   71 1
    70   32   33 ar
    71   32   72 1
    72   33   34 ar
    73   33   73 1
    74   34   35 ar
    75   34   74 1
    76   35   75 1
    77   36   76 1
@<TRIPOS>MOLECULE
CHEMBL57496__10
   77    78     0     0     0
SMALL
USER_CHARGES

@<TRIPOS>ATOM
      1 C1         -0.0187    1.5258    0.0104 C.3       1 <0>        -0.1550
      2 C2          0.0021   -0.0041    0.0020 C.3       1 <0>        -0.1263
      3 C3         -1.4333   -0.5336    0.0129 C.3       1 <0>        -0.1211
      4 C4         -1.4126   -2.0635    0.0045 C.3       1 <0>        -0.1217
      5 C5         -2.8479   -2.5931    0.0153 C.3       1 <0>        -0.1202
      6 C6         -2.8272   -4.1229    0.0069 C.3       1 <0>        -0.1199
      7 C7         -4.2626   -4.6525    0.0178 C.3       1 <0>        -0.1201
      8 C8         -4.2418   -6.1823    0.0094 C.3       1 <0>        -0.1034
      9 C9         -5.6772   -6.7119    0.0202 C.3       1 <0>        -0.1398
     10 C10        -5.6568   -8.2187    0.0119 C.2       1 <0>         0.5148
     11 O1         -4.5984   -8.8108   -0.0014 O.2       1 <0>        -0.4918
     12 N1         -6.8147   -8.9084    0.0193 N.am      1 <0>        -0.7514
     13 C11        -6.7948  -10.3733    0.0112 C.3       1 <0>         0.0956
     14 H1         -5.9538  -10.7220   -0.5882 H         1 <0>         0.1156
     15 C12        -8.1009  -10.8977   -0.5888 C.3       1 <0>        -0.0178
     16 N2         -8.3005  -10.3073   -1.9190 N.4       1 <0>        -0.5023
     17 C13        -9.5545  -10.8109   -2.4951 C.3       1 <0>         0.0826
     18 C14        -9.4425  -12.2914   -2.7131 C.2       1 <0>        -0.1787
     19 C15        -9.8628  -12.9021   -3.7742 C.2       1 <0>        -0.0926
     20 C16       -10.5113  -12.2135   -4.9393 C.3       1 <0>         0.1005
     21 C17       -10.9819  -10.8160   -4.5303 C.3       1 <0>         0.0907
     22 C18        -9.8231  -10.1013   -3.8240 C.3       1 <0>         0.0995
     23 O2        -10.1774   -8.7389   -3.5780 O.3       1 <0>        -0.5597
     24 O3        -12.0937  -10.9252   -3.6392 O.3       1 <0>        -0.5455
     25 O4         -9.5692  -12.1022   -6.0080 O.3       1 <0>        -0.5488
     26 C19        -9.6898  -14.3975   -3.8442 C.3       1 <0>         0.0970
     27 O5         -9.0576  -14.8603   -2.6491 O.3       1 <0>        -0.5733
     28 C20        -6.6485  -10.8892    1.4442 C.3       1 <0>         0.1478
     29 H2         -7.4895  -10.5406    2.0435 H         1 <0>         0.1164
     30 C21        -5.3620  -10.3726    2.0351 C.ar      1 <0>        -0.1182
     31 C22        -4.1629  -10.9855    1.7231 C.ar      1 <0>        -0.0861
     32 C23        -2.9829  -10.5117    2.2652 C.ar      1 <0>        -0.1051
     33 C24        -3.0019   -9.4247    3.1190 C.ar      1 <0>        -0.1040
     34 C25        -4.2009   -8.8112    3.4303 C.ar      1 <0>        -0.1140
     35 C26        -5.3805   -9.2824    2.8849 C.ar      1 <0>        -0.1080
     36 O6         -6.6291  -12.3181    1.4363 O.3       1 <0>        -0.5451
     37 H3          1.0039    1.9031    0.0027 H         1 <0>         0.0548
     38 H4         -0.5459    1.8868   -0.8726 H         1 <0>         0.0535
     39 H5         -0.5289    1.8773    0.9072 H         1 <0>         0.0537
     40 H6          0.5123   -0.3556   -0.8948 H         1 <0>         0.0604
     41 H7          0.5293   -0.3651    0.8851 H         1 <0>         0.0606
     42 H8         -1.9435   -0.1821    0.9097 H         1 <0>         0.0609
     43 H9         -1.9605   -0.1726   -0.8702 H         1 <0>         0.0605
     44 H10        -0.9024   -2.4150   -0.8923 H         1 <0>         0.0608
     45 H11        -0.8854   -2.4246    0.8875 H         1 <0>         0.0612
     46 H12        -3.3581   -2.2415    0.9121 H         1 <0>         0.0611
     47 H13        -3.3751   -2.2320   -0.8677 H         1 <0>         0.0605
     48 H14        -2.3170   -4.4744   -0.8899 H         1 <0>         0.0616
     49 H15        -2.3000   -4.4840    0.8900 H         1 <0>         0.0624
     50 H16        -4.7728   -4.3010    0.9146 H         1 <0>         0.0629
     51 H17        -4.7898   -4.2914   -0.8653 H         1 <0>         0.0615
     52 H18        -3.7316   -6.5338   -0.8874 H         1 <0>         0.0688
     53 H19        -3.7146   -6.5434    0.8924 H         1 <0>         0.0721
     54 H20        -6.1874   -6.3604    0.9170 H         1 <0>         0.0972
     55 H21        -6.2044   -6.3508   -0.8628 H         1 <0>         0.0936
     56 H22        -7.6612   -8.4349    0.0299 H         1 <0>         0.4020
     57 H23        -8.0503  -11.9830   -0.6768 H         1 <0>         0.1564
     58 H24        -8.9339  -10.6242    0.0588 H         1 <0>         0.1422
     59 H25        -8.3473   -9.3027   -1.8375 H         1 <0>         0.4311
     60 H26       -10.3749  -10.6102   -1.8060 H         1 <0>         0.1629
     61 H27        -8.9823  -12.8843   -1.9365 H         1 <0>         0.1566
     62 H28       -11.3673  -12.7993   -5.2745 H         1 <0>         0.0876
     63 H29       -11.2733  -10.2534   -5.4173 H         1 <0>         0.0962
     64 H30        -8.9312  -10.1440   -4.4490 H         1 <0>         0.1020
     65 H31       -10.3614   -8.2296   -4.3791 H         1 <0>         0.4080
     66 H32       -12.8573  -11.3825   -4.0172 H         1 <0>         0.3962
     67 H33        -9.2345  -12.9513   -6.3273 H         1 <0>         0.3947
     68 H34       -10.6659  -14.8718   -3.9460 H         1 <0>         0.0747
     69 H35        -9.0707  -14.6517   -4.7045 H         1 <0>         0.0719
     70 H36        -8.9142  -15.8163   -2.6249 H         1 <0>         0.3994
     71 H37        -4.1480  -11.8347    1.0560 H         1 <0>         0.1114
     72 H38        -2.0461  -10.9909    2.0219 H         1 <0>         0.1219
     73 H39        -2.0801   -9.0549    3.5431 H         1 <0>         0.1226
     74 H40        -4.2159   -7.9622    4.0977 H         1 <0>         0.1218
     75 H41        -6.3168   -8.8009    3.1252 H         1 <0>         0.1146
     76 H42        -5.9051  -12.6988    0.9206 H         1 <0>         0.3812
     77 H43        -7.5294  -10.5605   -2.5185 H         1 <0>         0.4261
@<TRIPOS>BOND
     1    1    2 1
     2    1   37 1
     3    1   38 1
     4    1   39 1
     5    2    3 1
     6    2   40 1
     7    2   41 1
     8    3    4 1
     9    3   42 1
    10    3   43 1
    11    4    5 1
    12    4   44 1
    13    4   45 1
    14    5    6 1
    15    5   46 1
    16    5   47 1
    17    6    7 1
    18    6   48 1
    19    6   49 1
    20    7    8 1
    21    7   50 1
    22    7   51 1
    23    8    9 1
    24    8   52 1
    25    8   53 1
    26    9   10 1
    27    9   54 1
    28    9   55 1
    29   10   11 2
    30   10   12 am
    31   12   13 1
    32   12   56 1
    33   13   14 1
    34   13   15 1
    35   13   28 1
    36   15   16 1
    37   15   57 1
    38   15   58 1
    39   16   17 1
    40   16   59 1
    41   16   77 1
    42   17   22 1
    43   17   18 1
    44   17   60 1
    45   18   19 2
    46   18   61 1
    47   19   20 1
    48   19   26 1
    49   20   21 1
    50   20   25 1
    51   20   62 1
    52   21   22 1
    53   21   24 1
    54   21   63 1
    55   22   23 1
    56   22   64 1
    57   23   65 1
    58   24   66 1
    59   25   67 1
    60   26   27 1
    61   26   68 1
    62   26   69 1
    63   27   70 1
    64   28   29 1
    65   28   30 1
    66   28   36 1
    67   30   35 ar
    68   30   31 ar
    69   31   32 ar
    70   31   71 1
    71   32   33 ar
    72   32   72 1
    73   33   34 ar
    74   33   73 1
    75   34   35 ar
    76   34   74 1
    77   35   75 1
    78   36   76 1
@<TRIPOS>MOLECULE
CHEMBL57496__11
   76    77     0     0     0
SMALL
USER_CHARGES

@<TRIPOS>ATOM
      1 C1         -0.0187    1.5258    0.0104 C.3       1 <0>        -0.1541
      2 C2          0.0021   -0.0041    0.0020 C.3       1 <0>        -0.1263
      3 C3          0.7182   -0.4975   -1.2568 C.3       1 <0>        -0.1209
      4 C4          0.7390   -2.0273   -1.2652 C.3       1 <0>        -0.1215
      5 C5          1.4551   -2.5207   -2.5240 C.3       1 <0>        -0.1198
      6 C6          1.4758   -4.0506   -2.5324 C.3       1 <0>        -0.1195
      7 C7          2.1920   -4.5440   -3.7912 C.3       1 <0>        -0.1194
      8 C8          2.2127   -6.0738   -3.7996 C.3       1 <0>        -0.1010
      9 C9          2.9289   -6.5673   -5.0584 C.3       1 <0>        -0.1395
     10 C10         2.9493   -8.0741   -5.0667 C.2       1 <0>         0.5138
     11 O1          2.4411   -8.6925   -4.1555 O.2       1 <0>        -0.5122
     12 N1          3.5323   -8.7345   -6.0867 N.am      1 <0>        -0.7270
     13 C11         3.5522  -10.1994   -6.0948 C.3       1 <0>         0.1254
     14 H1          3.6564  -10.5669   -5.0739 H         1 <0>         0.1057
     15 C12         4.7327  -10.6888   -6.9361 C.3       1 <0>         0.0455
     16 N2          5.9753  -10.0889   -6.4321 N.3       1 <0>        -0.6731
     17 C13         7.1327  -10.5372   -7.2177 C.3       1 <0>         0.1278
     18 C14         7.6115  -11.8576   -6.6889 C.2       1 <0>        -0.0683
     19 C15         8.8581  -12.1618   -6.5191 C.2       1 <0>        -0.1894
     20 C16         9.9985  -11.2329   -6.8171 C.3       1 <0>         0.1213
     21 C17         9.5262  -10.0913   -7.7200 C.3       1 <0>         0.0859
     22 C18         8.2479   -9.4941   -7.1184 C.3       1 <0>         0.1146
     23 O2          7.8759   -8.3224   -7.8471 O.3       1 <0>        -0.5609
     24 O3          9.2511  -10.5960   -9.0283 O.3       1 <0>        -0.5425
     25 O4         10.5012  -10.6922   -5.5936 O.3       1 <0>        -0.5547
     26 C19         9.1847  -13.5340   -5.9885 C.3       1 <0>         0.1142
     27 O5          7.9738  -14.2604   -5.7692 O.3       1 <0>        -0.5674
     28 C20         2.2461  -10.7238   -6.6948 C.3       1 <0>         0.1383
     29 H2          2.1419  -10.3563   -7.7156 H         1 <0>         0.0618
     30 C21         1.0834  -10.2418   -5.8661 C.ar      1 <0>        -0.0679
     31 C22         0.7639  -10.8834   -4.6841 C.ar      1 <0>        -0.0644
     32 C23        -0.3026  -10.4413   -3.9240 C.ar      1 <0>        -0.1152
     33 C24        -1.0495   -9.3571   -4.3456 C.ar      1 <0>        -0.1132
     34 C25        -0.7295   -8.7149   -5.5271 C.ar      1 <0>        -0.1217
     35 C26         0.3397   -9.1544   -6.2851 C.ar      1 <0>        -0.1123
     36 O6          2.2655  -12.1527   -6.7026 O.3       1 <0>        -0.5528
     37 H3          1.0039    1.9031    0.0027 H         1 <0>         0.0532
     38 H4         -0.5459    1.8868   -0.8726 H         1 <0>         0.0532
     39 H5         -0.5289    1.8773    0.9072 H         1 <0>         0.0533
     40 H6          0.5293   -0.3651    0.8851 H         1 <0>         0.0603
     41 H7         -1.0205   -0.3814    0.0098 H         1 <0>         0.0603
     42 H8          0.1910   -0.1364   -2.1398 H         1 <0>         0.0603
     43 H9          1.7408   -0.1202   -1.2645 H         1 <0>         0.0603
     44 H10         1.2661   -2.3884   -0.3821 H         1 <0>         0.0607
     45 H11        -0.2836   -2.4046   -1.2575 H         1 <0>         0.0607
     46 H12         0.9279   -2.1597   -3.4071 H         1 <0>         0.0601
     47 H13         2.4777   -2.1435   -2.5317 H         1 <0>         0.0601
     48 H14         2.0030   -4.4117   -1.6494 H         1 <0>         0.0614
     49 H15         0.4533   -4.4279   -2.5247 H         1 <0>         0.0615
     50 H16         1.6648   -4.1829   -4.6743 H         1 <0>         0.0604
     51 H17         3.2146   -4.1667   -3.7990 H         1 <0>         0.0604
     52 H18         2.7399   -6.4349   -2.9166 H         1 <0>         0.0678
     53 H19         1.1901   -6.4511   -3.7919 H         1 <0>         0.0698
     54 H20         2.4017   -6.2062   -5.9415 H         1 <0>         0.0886
     55 H21         3.9515   -6.1900   -5.0662 H         1 <0>         0.0894
     56 H22         3.9388   -8.2400   -6.8155 H         1 <0>         0.3964
     57 H23         4.8005  -11.7747   -6.8700 H         1 <0>         0.0896
     58 H24         4.5838  -10.3967   -7.9756 H         1 <0>         0.0396
     59 H25         5.9128   -9.0819   -6.4227 H         1 <0>         0.3511
     60 H26         6.8383  -10.6533   -8.2607 H         1 <0>         0.0758
     61 H27         6.8698  -12.6000   -6.4340 H         1 <0>         0.1311
     62 H28        10.7929  -11.7854   -7.3189 H         1 <0>         0.0660
     63 H29        10.2984   -9.3240   -7.7748 H         1 <0>         0.0747
     64 H30         8.4196   -9.2397   -6.0725 H         1 <0>         0.0899
     65 H31         8.5391   -7.6190   -7.8260 H         1 <0>         0.3837
     66 H32        10.0140  -11.0031   -9.4612 H         1 <0>         0.3796
     67 H33        10.8290  -11.3586   -4.9744 H         1 <0>         0.3845
     68 H34         9.8016  -14.0662   -6.7125 H         1 <0>         0.0543
     69 H35         9.7275  -13.4402   -5.0479 H         1 <0>         0.0533
     70 H36         8.1082  -15.1548   -5.4268 H         1 <0>         0.3847
     71 H37         1.3474  -11.7305   -4.3547 H         1 <0>         0.1177
     72 H38        -0.5526  -10.9430   -3.0008 H         1 <0>         0.1164
     73 H39        -1.8832   -9.0121   -3.7521 H         1 <0>         0.1159
     74 H40        -1.3132   -7.8681   -5.8567 H         1 <0>         0.1161
     75 H41         0.5920   -8.6504   -7.2063 H         1 <0>         0.1107
     76 H42         2.9895  -12.5334   -7.2183 H         1 <0>         0.3777
@<TRIPOS>BOND
     1    1    2 1
     2    1   37 1
     3    1   38 1
     4    1   39 1
     5    2    3 1
     6    2   40 1
     7    2   41 1
     8    3    4 1
     9    3   42 1
    10    3   43 1
    11    4    5 1
    12    4   44 1
    13    4   45 1
    14    5    6 1
    15    5   46 1
    16    5   47 1
    17    6    7 1
    18    6   48 1
    19    6   49 1
    20    7    8 1
    21    7   50 1
    22    7   51 1
    23    8    9 1
    24    8   52 1
    25    8   53 1
    26    9   10 1
    27    9   54 1
    28    9   55 1
    29   10   11 2
    30   10   12 am
    31   12   13 1
    32   12   56 1
    33   13   14 1
    34   13   15 1
    35   13   28 1
    36   15   16 1
    37   15   57 1
    38   15   58 1
    39   16   17 1
    40   16   59 1
    41   17   22 1
    42   17   18 1
    43   17   60 1
    44   18   19 2
    45   18   61 1
    46   19   20 1
    47   19   26 1
    48   20   21 1
    49   20   25 1
    50   20   62 1
    51   21   22 1
    52   21   24 1
    53   21   63 1
    54   22   23 1
    55   22   64 1
    56   23   65 1
    57   24   66 1
    58   25   67 1
    59   26   27 1
    60   26   68 1
    61   26   69 1
    62   27   70 1
    63   28   29 1
    64   28   30 1
    65   28   36 1
    66   30   35 ar
    67   30   31 ar
    68   31   32 ar
    69   31   71 1
    70   32   33 ar
    71   32   72 1
    72   33   34 ar
    73   33   73 1
    74   34   35 ar
    75   34   74 1
    76   35   75 1
    77   36   76 1
@<TRIPOS>MOLECULE
CHEMBL57496__12
   77    78     0     0     0
SMALL
USER_CHARGES

@<TRIPOS>ATOM
      1 C1         -0.0187    1.5258    0.0104 C.3       1 <0>        -0.1550
      2 C2          0.0021   -0.0041    0.0020 C.3       1 <0>        -0.1264
      3 C3         -1.4333   -0.5336    0.0129 C.3       1 <0>        -0.1211
      4 C4         -1.4126   -2.0635    0.0045 C.3       1 <0>        -0.1218
      5 C5         -2.8479   -2.5931    0.0153 C.3       1 <0>        -0.1201
      6 C6         -2.8272   -4.1229    0.0069 C.3       1 <0>        -0.1201
      7 C7         -4.2626   -4.6525    0.0178 C.3       1 <0>        -0.1198
      8 C8         -4.2418   -6.1823    0.0094 C.3       1 <0>        -0.1039
      9 C9         -5.6772   -6.7119    0.0202 C.3       1 <0>        -0.1393
     10 C10        -5.6568   -8.2187    0.0119 C.2       1 <0>         0.5146
     11 O1         -4.5984   -8.8108   -0.0014 O.2       1 <0>        -0.4901
     12 N1         -6.8147   -8.9084    0.0193 N.am      1 <0>        -0.7515
     13 C11        -6.7948  -10.3733    0.0112 C.3       1 <0>         0.0958
     14 H1         -5.9538  -10.7220   -0.5882 H         1 <0>         0.1161
     15 C12        -8.1009  -10.8977   -0.5888 C.3       1 <0>        -0.0189
     16 N2         -8.3005  -10.3073   -1.9190 N.4       1 <0>        -0.4959
     17 C13        -9.5545  -10.8109   -2.4951 C.3       1 <0>         0.0813
     18 C14        -9.4425  -12.2914   -2.7131 C.2       1 <0>        -0.1911
     19 C15        -9.8628  -12.9021   -3.7742 C.2       1 <0>        -0.0813
     20 C16       -10.5113  -12.2135   -4.9393 C.3       1 <0>         0.1070
     21 C17       -10.9819  -10.8160   -4.5303 C.3       1 <0>         0.0889
     22 C18        -9.8231  -10.1013   -3.8240 C.3       1 <0>         0.0951
     23 O2         -8.6538  -10.1573   -4.6434 O.3       1 <0>        -0.5522
     24 O3        -11.3639  -10.0784   -5.6931 O.3       1 <0>        -0.5451
     25 O4         -9.5692  -12.1022   -6.0080 O.3       1 <0>        -0.5288
     26 C19        -9.6898  -14.3975   -3.8442 C.3       1 <0>         0.0963
     27 O5         -9.0576  -14.8603   -2.6491 O.3       1 <0>        -0.5736
     28 C20        -6.6485  -10.8892    1.4442 C.3       1 <0>         0.1483
     29 H2         -7.4895  -10.5406    2.0435 H         1 <0>         0.1159
     30 C21        -5.3620  -10.3726    2.0351 C.ar      1 <0>        -0.1186
     31 C22        -4.1629  -10.9855    1.7231 C.ar      1 <0>        -0.0860
     32 C23        -2.9829  -10.5117    2.2652 C.ar      1 <0>        -0.1049
     33 C24        -3.0019   -9.4247    3.1190 C.ar      1 <0>        -0.1038
     34 C25        -4.2009   -8.8112    3.4303 C.ar      1 <0>        -0.1142
     35 C26        -5.3805   -9.2824    2.8849 C.ar      1 <0>        -0.1082
     36 O6         -6.6291  -12.3181    1.4363 O.3       1 <0>        -0.5456
     37 H3          1.0039    1.9031    0.0027 H         1 <0>         0.0548
     38 H4         -0.5459    1.8868   -0.8726 H         1 <0>         0.0535
     39 H5         -0.5289    1.8773    0.9072 H         1 <0>         0.0537
     40 H6          0.5123   -0.3556   -0.8948 H         1 <0>         0.0604
     41 H7          0.5293   -0.3651    0.8851 H         1 <0>         0.0606
     42 H8         -1.9435   -0.1821    0.9097 H         1 <0>         0.0608
     43 H9         -1.9605   -0.1726   -0.8702 H         1 <0>         0.0605
     44 H10        -0.9024   -2.4150   -0.8923 H         1 <0>         0.0609
     45 H11        -0.8854   -2.4246    0.8875 H         1 <0>         0.0612
     46 H12        -3.3581   -2.2415    0.9121 H         1 <0>         0.0610
     47 H13        -3.3751   -2.2320   -0.8677 H         1 <0>         0.0605
     48 H14        -2.3170   -4.4744   -0.8899 H         1 <0>         0.0618
     49 H15        -2.3000   -4.4840    0.8900 H         1 <0>         0.0625
     50 H16        -4.7728   -4.3010    0.9146 H         1 <0>         0.0627
     51 H17        -4.7898   -4.2914   -0.8653 H         1 <0>         0.0615
     52 H18        -3.7316   -6.5338   -0.8874 H         1 <0>         0.0692
     53 H19        -3.7146   -6.5434    0.8924 H         1 <0>         0.0721
     54 H20        -6.1874   -6.3604    0.9170 H         1 <0>         0.0969
     55 H21        -6.2044   -6.3508   -0.8628 H         1 <0>         0.0932
     56 H22        -7.6612   -8.4349    0.0299 H         1 <0>         0.4002
     57 H23        -8.0503  -11.9830   -0.6768 H         1 <0>         0.1567
     58 H24        -8.9339  -10.6242    0.0588 H         1 <0>         0.1413
     59 H25        -8.3473   -9.3027   -1.8375 H         1 <0>         0.4243
     60 H26       -10.3749  -10.6102   -1.8060 H         1 <0>         0.1574
     61 H27        -8.9823  -12.8843   -1.9365 H         1 <0>         0.1529
     62 H28       -11.3673  -12.7993   -5.2745 H         1 <0>         0.0790
     63 H29       -11.8299  -10.8993   -3.8506 H         1 <0>         0.0886
     64 H30       -10.0934   -9.0621   -3.6364 H         1 <0>         0.0936
     65 H31        -8.7546   -9.7254   -5.5027 H         1 <0>         0.4150
     66 H32       -12.0826  -10.4836   -6.1974 H         1 <0>         0.3984
     67 H33        -9.2345  -12.9513   -6.3273 H         1 <0>         0.3842
     68 H34       -10.6659  -14.8718   -3.9460 H         1 <0>         0.0738
     69 H35        -9.0707  -14.6517   -4.7045 H         1 <0>         0.0726
     70 H36        -8.9142  -15.8163   -2.6249 H         1 <0>         0.3988
     71 H37        -4.1480  -11.8347    1.0560 H         1 <0>         0.1116
     72 H38        -2.0461  -10.9909    2.0219 H         1 <0>         0.1221
     73 H39        -2.0801   -9.0549    3.5431 H         1 <0>         0.1227
     74 H40        -4.2159   -7.9622    4.0977 H         1 <0>         0.1217
     75 H41        -6.3168   -8.8009    3.1252 H         1 <0>         0.1143
     76 H42        -5.9051  -12.6988    0.9206 H         1 <0>         0.3819
     77 H43        -7.5294  -10.5605   -2.5185 H         1 <0>         0.4387
@<TRIPOS>BOND
     1    1    2 1
     2    1   37 1
     3    1   38 1
     4    1   39 1
     5    2    3 1
     6    2   40 1
     7    2   41 1
     8    3    4 1
     9    3   42 1
    10    3   43 1
    11    4    5 1
    12    4   44 1
    13    4   45 1
    14    5    6 1
    15    5   46 1
    16    5   47 1
    17    6    7 1
    18    6   48 1
    19    6   49 1
    20    7    8 1
    21    7   50 1
    22    7   51 1
    23    8    9 1
    24    8   52 1
    25    8   53 1
    26    9   10 1
    27    9   54 1
    28    9   55 1
    29   10   11 2
    30   10   12 am
    31   12   13 1
    32   12   56 1
    33   13   14 1
    34   13   15 1
    35   13   28 1
    36   15   16 1
    37   15   57 1
    38   15   58 1
    39   16   17 1
    40   16   59 1
    41   16   77 1
    42   17   22 1
    43   17   18 1
    44   17   60 1
    45   18   19 2
    46   18   61 1
    47   19   20 1
    48   19   26 1
    49   20   21 1
    50   20   25 1
    51   20   62 1
    52   21   22 1
    53   21   24 1
    54   21   63 1
    55   22   23 1
    56   22   64 1
    57   23   65 1
    58   24   66 1
    59   25   67 1
    60   26   27 1
    61   26   68 1
    62   26   69 1
    63   27   70 1
    64   28   29 1
    65   28   30 1
    66   28   36 1
    67   30   35 ar
    68   30   31 ar
    69   31   32 ar
    70   31   71 1
    71   32   33 ar
    72   32   72 1
    73   33   34 ar
    74   33   73 1
    75   34   35 ar
    76   34   74 1
    77   35   75 1
    78   36   76 1
@<TRIPOS>MOLECULE
CHEMBL57496__13
   76    77     0     0     0
SMALL
USER_CHARGES

@<TRIPOS>ATOM
      1 C1         -0.0187    1.5258    0.0104 C.3       1 <0>        -0.1541
      2 C2          0.0021   -0.0041    0.0020 C.3       1 <0>        -0.1263
      3 C3          0.7182   -0.4975   -1.2568 C.3       1 <0>        -0.1209
      4 C4          0.7390   -2.0273   -1.2652 C.3       1 <0>        -0.1215
      5 C5          1.4551   -2.5207   -2.5240 C.3       1 <0>        -0.1197
      6 C6          1.4758   -4.0506   -2.5324 C.3       1 <0>        -0.1196
      7 C7          2.1920   -4.5440   -3.7912 C.3       1 <0>        -0.1193
      8 C8          2.2127   -6.0738   -3.7996 C.3       1 <0>        -0.1012
      9 C9          2.9289   -6.5673   -5.0584 C.3       1 <0>        -0.1393
     10 C10         2.9493   -8.0741   -5.0667 C.2       1 <0>         0.5145
     11 O1          2.4411   -8.6925   -4.1555 O.2       1 <0>        -0.5105
     12 N1          3.5323   -8.7345   -6.0867 N.am      1 <0>        -0.7275
     13 C11         3.5522  -10.1994   -6.0948 C.3       1 <0>         0.1258
     14 H1          3.6564  -10.5669   -5.0739 H         1 <0>         0.1069
     15 C12         4.7327  -10.6888   -6.9361 C.3       1 <0>         0.0427
     16 N2          5.9753  -10.0889   -6.4321 N.3       1 <0>        -0.6576
     17 C13         7.1327  -10.5372   -7.2177 C.3       1 <0>         0.1232
     18 C14         7.6115  -11.8576   -6.6889 C.2       1 <0>        -0.0794
     19 C15         8.8581  -12.1618   -6.5191 C.2       1 <0>        -0.1784
     20 C16         9.9985  -11.2329   -6.8171 C.3       1 <0>         0.1290
     21 C17         9.5262  -10.0913   -7.7200 C.3       1 <0>         0.0807
     22 C18         8.2479   -9.4941   -7.1184 C.3       1 <0>         0.1179
     23 O2          8.4731   -9.1606   -5.7473 O.3       1 <0>        -0.5244
     24 O3         10.5386   -9.0854   -7.7919 O.3       1 <0>        -0.5519
     25 O4         10.5012  -10.6922   -5.5936 O.3       1 <0>        -0.5334
     26 C19         9.1847  -13.5340   -5.9885 C.3       1 <0>         0.1136
     27 O5          7.9738  -14.2604   -5.7692 O.3       1 <0>        -0.5677
     28 C20         2.2461  -10.7238   -6.6948 C.3       1 <0>         0.1388
     29 H2          2.1419  -10.3563   -7.7156 H         1 <0>         0.0612
     30 C21         1.0834  -10.2418   -5.8661 C.ar      1 <0>        -0.0687
     31 C22         0.7639  -10.8834   -4.6841 C.ar      1 <0>        -0.0641
     32 C23        -0.3026  -10.4413   -3.9240 C.ar      1 <0>        -0.1149
     33 C24        -1.0495   -9.3571   -4.3456 C.ar      1 <0>        -0.1128
     34 C25        -0.7295   -8.7149   -5.5271 C.ar      1 <0>        -0.1219
     35 C26         0.3397   -9.1544   -6.2851 C.ar      1 <0>        -0.1124
     36 O6          2.2655  -12.1527   -6.7026 O.3       1 <0>        -0.5524
     37 H3          1.0039    1.9031    0.0027 H         1 <0>         0.0532
     38 H4         -0.5459    1.8868   -0.8726 H         1 <0>         0.0531
     39 H5         -0.5289    1.8773    0.9072 H         1 <0>         0.0533
     40 H6          0.5293   -0.3651    0.8851 H         1 <0>         0.0604
     41 H7         -1.0205   -0.3814    0.0098 H         1 <0>         0.0603
     42 H8          0.1910   -0.1364   -2.1398 H         1 <0>         0.0602
     43 H9          1.7408   -0.1202   -1.2645 H         1 <0>         0.0603
     44 H10         1.2661   -2.3884   -0.3821 H         1 <0>         0.0608
     45 H11        -0.2836   -2.4046   -1.2575 H         1 <0>         0.0606
     46 H12         0.9279   -2.1597   -3.4071 H         1 <0>         0.0599
     47 H13         2.4777   -2.1435   -2.5317 H         1 <0>         0.0602
     48 H14         2.0030   -4.4117   -1.6494 H         1 <0>         0.0617
     49 H15         0.4533   -4.4279   -2.5247 H         1 <0>         0.0614
     50 H16         1.6648   -4.1829   -4.6743 H         1 <0>         0.0601
     51 H17         3.2146   -4.1667   -3.7990 H         1 <0>         0.0606
     52 H18         2.7399   -6.4349   -2.9166 H         1 <0>         0.0684
     53 H19         1.1901   -6.4511   -3.7919 H         1 <0>         0.0697
     54 H20         2.4017   -6.2062   -5.9415 H         1 <0>         0.0881
     55 H21         3.9515   -6.1900   -5.0662 H         1 <0>         0.0896
     56 H22         3.9388   -8.2400   -6.8155 H         1 <0>         0.3941
     57 H23         4.8005  -11.7747   -6.8700 H         1 <0>         0.0909
     58 H24         4.5838  -10.3967   -7.9756 H         1 <0>         0.0366
     59 H25         5.9128   -9.0819   -6.4227 H         1 <0>         0.3489
     60 H26         6.8383  -10.6533   -8.2607 H         1 <0>         0.0678
     61 H27         6.8698  -12.6000   -6.4340 H         1 <0>         0.1277
     62 H28        10.7929  -11.7854   -7.3189 H         1 <0>         0.0571
     63 H29         9.3164  -10.4762   -8.7180 H         1 <0>         0.0751
     64 H30         7.9641   -8.6004   -7.6742 H         1 <0>         0.0602
     65 H31         9.1689   -8.5030   -5.6116 H         1 <0>         0.3817
     66 H32        11.3806   -9.3996   -8.1487 H         1 <0>         0.3837
     67 H33        10.8290  -11.3586   -4.9744 H         1 <0>         0.3736
     68 H34         9.8016  -14.0662   -6.7125 H         1 <0>         0.0534
     69 H35         9.7275  -13.4402   -5.0479 H         1 <0>         0.0544
     70 H36         8.1082  -15.1548   -5.4268 H         1 <0>         0.3842
     71 H37         1.3474  -11.7305   -4.3547 H         1 <0>         0.1179
     72 H38        -0.5526  -10.9430   -3.0008 H         1 <0>         0.1167
     73 H39        -1.8832   -9.0121   -3.7521 H         1 <0>         0.1161
     74 H40        -1.3132   -7.8681   -5.8567 H         1 <0>         0.1161
     75 H41         0.5920   -8.6504   -7.2063 H         1 <0>         0.1104
     76 H42         2.9895  -12.5334   -7.2183 H         1 <0>         0.3772
@<TRIPOS>BOND
     1    1    2 1
     2    1   37 1
     3    1   38 1
     4    1   39 1
     5    2    3 1
     6    2   40 1
     7    2   41 1
     8    3    4 1
     9    3   42 1
    10    3   43 1
    11    4    5 1
    12    4   44 1
    13    4   45 1
    14    5    6 1
    15    5   46 1
    16    5   47 1
    17    6    7 1
    18    6   48 1
    19    6   49 1
    20    7    8 1
    21    7   50 1
    22    7   51 1
    23    8    9 1
    24    8   52 1
    25    8   53 1
    26    9   10 1
    27    9   54 1
    28    9   55 1
    29   10   11 2
    30   10   12 am
    31   12   13 1
    32   12   56 1
    33   13   14 1
    34   13   15 1
    35   13   28 1
    36   15   16 1
    37   15   57 1
    38   15   58 1
    39   16   17 1
    40   16   59 1
    41   17   22 1
    42   17   18 1
    43   17   60 1
    44   18   19 2
    45   18   61 1
    46   19   20 1
    47   19   26 1
    48   20   21 1
    49   20   25 1
    50   20   62 1
    51   21   22 1
    52   21   24 1
    53   21   63 1
    54   22   23 1
    55   22   64 1
    56   23   65 1
    57   24   66 1
    58   25   67 1
    59   26   27 1
    60   26   68 1
    61   26   69 1
    62   27   70 1
    63   28   29 1
    64   28   30 1
    65   28   36 1
    66   30   35 ar
    67   30   31 ar
    68   31   32 ar
    69   31   71 1
    70   32   33 ar
    71   32   72 1
    72   33   34 ar
    73   33   73 1
    74   34   35 ar
    75   34   74 1
    76   35   75 1
    77   36   76 1
@<TRIPOS>MOLECULE
CHEMBL57496__14
   77    78     0     0     0
SMALL
USER_CHARGES

@<TRIPOS>ATOM
      1 C1         -0.0187    1.5258    0.0104 C.3       1 <0>        -0.1550
      2 C2          0.0021   -0.0041    0.0020 C.3       1 <0>        -0.1263
      3 C3         -1.4333   -0.5336    0.0129 C.3       1 <0>        -0.1211
      4 C4         -1.4126   -2.0635    0.0045 C.3       1 <0>        -0.1217
      5 C5         -2.8479   -2.5931    0.0153 C.3       1 <0>        -0.1202
      6 C6         -2.8272   -4.1229    0.0069 C.3       1 <0>        -0.1199
      7 C7         -4.2626   -4.6525    0.0178 C.3       1 <0>        -0.1201
      8 C8         -4.2418   -6.1823    0.0094 C.3       1 <0>        -0.1035
      9 C9         -5.6772   -6.7119    0.0202 C.3       1 <0>        -0.1398
     10 C10        -5.6568   -8.2187    0.0119 C.2       1 <0>         0.5149
     11 O1         -4.5984   -8.8108   -0.0014 O.2       1 <0>        -0.4914
     12 N1         -6.8147   -8.9084    0.0193 N.am      1 <0>        -0.7517
     13 C11        -6.7948  -10.3733    0.0112 C.3       1 <0>         0.0954
     14 H1         -5.9538  -10.7220   -0.5882 H         1 <0>         0.1161
     15 C12        -8.1009  -10.8977   -0.5888 C.3       1 <0>        -0.0184
     16 N2         -8.3005  -10.3073   -1.9190 N.4       1 <0>        -0.4997
     17 C13        -9.5545  -10.8109   -2.4951 C.3       1 <0>         0.0797
     18 C14        -9.4425  -12.2914   -2.7131 C.2       1 <0>        -0.1918
     19 C15        -9.8628  -12.9021   -3.7742 C.2       1 <0>        -0.0880
     20 C16       -10.5113  -12.2135   -4.9393 C.3       1 <0>         0.0969
     21 C17       -10.9819  -10.8160   -4.5303 C.3       1 <0>         0.0954
     22 C18        -9.8231  -10.1013   -3.8240 C.3       1 <0>         0.0959
     23 O2        -10.1774   -8.7389   -3.5780 O.3       1 <0>        -0.5637
     24 O3        -11.3639  -10.0784   -5.6931 O.3       1 <0>        -0.5443
     25 O4         -9.5692  -12.1022   -6.0080 O.3       1 <0>        -0.5386
     26 C19        -9.6898  -14.3975   -3.8442 C.3       1 <0>         0.0960
     27 O5         -9.0576  -14.8603   -2.6491 O.3       1 <0>        -0.5737
     28 C20        -6.6485  -10.8892    1.4442 C.3       1 <0>         0.1482
     29 H2         -7.4895  -10.5406    2.0435 H         1 <0>         0.1164
     30 C21        -5.3620  -10.3726    2.0351 C.ar      1 <0>        -0.1187
     31 C22        -4.1629  -10.9855    1.7231 C.ar      1 <0>        -0.0861
     32 C23        -2.9829  -10.5117    2.2652 C.ar      1 <0>        -0.1050
     33 C24        -3.0019   -9.4247    3.1190 C.ar      1 <0>        -0.1037
     34 C25        -4.2009   -8.8112    3.4303 C.ar      1 <0>        -0.1140
     35 C26        -5.3805   -9.2824    2.8849 C.ar      1 <0>        -0.1079
     36 O6         -6.6291  -12.3181    1.4363 O.3       1 <0>        -0.5454
     37 H3          1.0039    1.9031    0.0027 H         1 <0>         0.0548
     38 H4         -0.5459    1.8868   -0.8726 H         1 <0>         0.0535
     39 H5         -0.5289    1.8773    0.9072 H         1 <0>         0.0537
     40 H6          0.5123   -0.3556   -0.8948 H         1 <0>         0.0604
     41 H7          0.5293   -0.3651    0.8851 H         1 <0>         0.0606
     42 H8         -1.9435   -0.1821    0.9097 H         1 <0>         0.0608
     43 H9         -1.9605   -0.1726   -0.8702 H         1 <0>         0.0605
     44 H10        -0.9024   -2.4150   -0.8923 H         1 <0>         0.0608
     45 H11        -0.8854   -2.4246    0.8875 H         1 <0>         0.0612
     46 H12        -3.3581   -2.2415    0.9121 H         1 <0>         0.0611
     47 H13        -3.3751   -2.2320   -0.8677 H         1 <0>         0.0606
     48 H14        -2.3170   -4.4744   -0.8899 H         1 <0>         0.0617
     49 H15        -2.3000   -4.4840    0.8900 H         1 <0>         0.0624
     50 H16        -4.7728   -4.3010    0.9146 H         1 <0>         0.0629
     51 H17        -4.7898   -4.2914   -0.8653 H         1 <0>         0.0617
     52 H18        -3.7316   -6.5338   -0.8874 H         1 <0>         0.0689
     53 H19        -3.7146   -6.5434    0.8924 H         1 <0>         0.0720
     54 H20        -6.1874   -6.3604    0.9170 H         1 <0>         0.0972
     55 H21        -6.2044   -6.3508   -0.8628 H         1 <0>         0.0939
     56 H22        -7.6612   -8.4349    0.0299 H         1 <0>         0.4019
     57 H23        -8.0503  -11.9830   -0.6768 H         1 <0>         0.1572
     58 H24        -8.9339  -10.6242    0.0588 H         1 <0>         0.1428
     59 H25        -8.3473   -9.3027   -1.8375 H         1 <0>         0.4325
     60 H26       -10.3749  -10.6102   -1.8060 H         1 <0>         0.1577
     61 H27        -8.9823  -12.8843   -1.9365 H         1 <0>         0.1600
     62 H28       -11.3673  -12.7993   -5.2745 H         1 <0>         0.0877
     63 H29       -11.8299  -10.8993   -3.8506 H         1 <0>         0.0908
     64 H30        -8.9312  -10.1440   -4.4490 H         1 <0>         0.0963
     65 H31       -10.3614   -8.2296   -4.3791 H         1 <0>         0.4159
     66 H32       -12.0826  -10.4836   -6.1974 H         1 <0>         0.3999
     67 H33        -9.2345  -12.9513   -6.3273 H         1 <0>         0.3891
     68 H34       -10.6659  -14.8718   -3.9460 H         1 <0>         0.0767
     69 H35        -9.0707  -14.6517   -4.7045 H         1 <0>         0.0743
     70 H36        -8.9142  -15.8163   -2.6249 H         1 <0>         0.4004
     71 H37        -4.1480  -11.8347    1.0560 H         1 <0>         0.1114
     72 H38        -2.0461  -10.9909    2.0219 H         1 <0>         0.1221
     73 H39        -2.0801   -9.0549    3.5431 H         1 <0>         0.1227
     74 H40        -4.2159   -7.9622    4.0977 H         1 <0>         0.1218
     75 H41        -6.3168   -8.8009    3.1252 H         1 <0>         0.1145
     76 H42        -5.9051  -12.6988    0.9206 H         1 <0>         0.3815
     77 H43        -7.5294  -10.5605   -2.5185 H         1 <0>         0.4287
@<TRIPOS>BOND
     1    1    2 1
     2    1   37 1
     3    1   38 1
     4    1   39 1
     5    2    3 1
     6    2   40 1
     7    2   41 1
     8    3    4 1
     9    3   42 1
    10    3   43 1
    11    4    5 1
    12    4   44 1
    13    4   45 1
    14    5    6 1
    15    5   46 1
    16    5   47 1
    17    6    7 1
    18    6   48 1
    19    6   49 1
    20    7    8 1
    21    7   50 1
    22    7   51 1
    23    8    9 1
    24    8   52 1
    25    8   53 1
    26    9   10 1
    27    9   54 1
    28    9   55 1
    29   10   11 2
    30   10   12 am
    31   12   13 1
    32   12   56 1
    33   13   14 1
    34   13   15 1
    35   13   28 1
    36   15   16 1
    37   15   57 1
    38   15   58 1
    39   16   17 1
    40   16   59 1
    41   16   77 1
    42   17   22 1
    43   17   18 1
    44   17   60 1
    45   18   19 2
    46   18   61 1
    47   19   20 1
    48   19   26 1
    49   20   21 1
    50   20   25 1
    51   20   62 1
    52   21   22 1
    53   21   24 1
    54   21   63 1
    55   22   23 1
    56   22   64 1
    57   23   65 1
    58   24   66 1
    59   25   67 1
    60   26   27 1
    61   26   68 1
    62   26   69 1
    63   27   70 1
    64   28   29 1
    65   28   30 1
    66   28   36 1
    67   30   35 ar
    68   30   31 ar
    69   31   32 ar
    70   31   71 1
    71   32   33 ar
    72   32   72 1
    73   33   34 ar
    74   33   73 1
    75   34   35 ar
    76   34   74 1
    77   35   75 1
    78   36   76 1
@<TRIPOS>MOLECULE
CHEMBL57496__15
   76    77     0     0     0
SMALL
USER_CHARGES

@<TRIPOS>ATOM
      1 C1         -0.0187    1.5258    0.0104 C.3       1 <0>        -0.1541
      2 C2          0.0021   -0.0041    0.0020 C.3       1 <0>        -0.1263
      3 C3          0.7182   -0.4975   -1.2568 C.3       1 <0>        -0.1209
      4 C4          0.7390   -2.0273   -1.2652 C.3       1 <0>        -0.1215
      5 C5          1.4551   -2.5207   -2.5240 C.3       1 <0>        -0.1198
      6 C6          1.4758   -4.0506   -2.5324 C.3       1 <0>        -0.1194
      7 C7          2.1920   -4.5440   -3.7912 C.3       1 <0>        -0.1195
      8 C8          2.2127   -6.0738   -3.7996 C.3       1 <0>        -0.1010
      9 C9          2.9289   -6.5673   -5.0584 C.3       1 <0>        -0.1396
     10 C10         2.9493   -8.0741   -5.0667 C.2       1 <0>         0.5141
     11 O1          2.4411   -8.6925   -4.1555 O.2       1 <0>        -0.5118
     12 N1          3.5323   -8.7345   -6.0867 N.am      1 <0>        -0.7275
     13 C11         3.5522  -10.1994   -6.0948 C.3       1 <0>         0.1252
     14 H1          3.6564  -10.5669   -5.0739 H         1 <0>         0.1063
     15 C12         4.7327  -10.6888   -6.9361 C.3       1 <0>         0.0447
     16 N2          5.9753  -10.0889   -6.4321 N.3       1 <0>        -0.6686
     17 C13         7.1327  -10.5372   -7.2177 C.3       1 <0>         0.1234
     18 C14         7.6115  -11.8576   -6.6889 C.2       1 <0>        -0.0814
     19 C15         8.8581  -12.1618   -6.5191 C.2       1 <0>        -0.1852
     20 C16         9.9985  -11.2329   -6.8171 C.3       1 <0>         0.1188
     21 C17         9.5262  -10.0913   -7.7200 C.3       1 <0>         0.0879
     22 C18         8.2479   -9.4941   -7.1184 C.3       1 <0>         0.1157
     23 O2          7.8759   -8.3224   -7.8471 O.3       1 <0>        -0.5656
     24 O3         10.5386   -9.0854   -7.7919 O.3       1 <0>        -0.5510
     25 O4         10.5012  -10.6922   -5.5936 O.3       1 <0>        -0.5439
     26 C19         9.1847  -13.5340   -5.9885 C.3       1 <0>         0.1134
     27 O5          7.9738  -14.2604   -5.7692 O.3       1 <0>        -0.5677
     28 C20         2.2461  -10.7238   -6.6948 C.3       1 <0>         0.1386
     29 H2          2.1419  -10.3563   -7.7156 H         1 <0>         0.0618
     30 C21         1.0834  -10.2418   -5.8661 C.ar      1 <0>        -0.0685
     31 C22         0.7639  -10.8834   -4.6841 C.ar      1 <0>        -0.0643
     32 C23        -0.3026  -10.4413   -3.9240 C.ar      1 <0>        -0.1151
     33 C24        -1.0495   -9.3571   -4.3456 C.ar      1 <0>        -0.1129
     34 C25        -0.7295   -8.7149   -5.5271 C.ar      1 <0>        -0.1217
     35 C26         0.3397   -9.1544   -6.2851 C.ar      1 <0>        -0.1122
     36 O6          2.2655  -12.1527   -6.7026 O.3       1 <0>        -0.5525
     37 H3          1.0039    1.9031    0.0027 H         1 <0>         0.0532
     38 H4         -0.5459    1.8868   -0.8726 H         1 <0>         0.0532
     39 H5         -0.5289    1.8773    0.9072 H         1 <0>         0.0533
     40 H6          0.5293   -0.3651    0.8851 H         1 <0>         0.0603
     41 H7         -1.0205   -0.3814    0.0098 H         1 <0>         0.0603
     42 H8          0.1910   -0.1364   -2.1398 H         1 <0>         0.0603
     43 H9          1.7408   -0.1202   -1.2645 H         1 <0>         0.0603
     44 H10         1.2661   -2.3884   -0.3821 H         1 <0>         0.0607
     45 H11        -0.2836   -2.4046   -1.2575 H         1 <0>         0.0606
     46 H12         0.9279   -2.1597   -3.4071 H         1 <0>         0.0601
     47 H13         2.4777   -2.1435   -2.5317 H         1 <0>         0.0602
     48 H14         2.0030   -4.4117   -1.6494 H         1 <0>         0.0614
     49 H15         0.4533   -4.4279   -2.5247 H         1 <0>         0.0614
     50 H16         1.6648   -4.1829   -4.6743 H         1 <0>         0.0604
     51 H17         3.2146   -4.1667   -3.7990 H         1 <0>         0.0607
     52 H18         2.7399   -6.4349   -2.9166 H         1 <0>         0.0679
     53 H19         1.1901   -6.4511   -3.7919 H         1 <0>         0.0697
     54 H20         2.4017   -6.2062   -5.9415 H         1 <0>         0.0887
     55 H21         3.9515   -6.1900   -5.0662 H         1 <0>         0.0898
     56 H22         3.9388   -8.2400   -6.8155 H         1 <0>         0.3965
     57 H23         4.8005  -11.7747   -6.8700 H         1 <0>         0.0906
     58 H24         4.5838  -10.3967   -7.9756 H         1 <0>         0.0402
     59 H25         5.9128   -9.0819   -6.4227 H         1 <0>         0.3537
     60 H26         6.8383  -10.6533   -8.2607 H         1 <0>         0.0684
     61 H27         6.8698  -12.6000   -6.4340 H         1 <0>         0.1350
     62 H28        10.7929  -11.7854   -7.3189 H         1 <0>         0.0660
     63 H29         9.3164  -10.4762   -8.7180 H         1 <0>         0.0772
     64 H30         8.4196   -9.2397   -6.0725 H         1 <0>         0.0836
     65 H31         8.5391   -7.6190   -7.8260 H         1 <0>         0.3927
     66 H32        11.3806   -9.3996   -8.1487 H         1 <0>         0.3849
     67 H33        10.8290  -11.3586   -4.9744 H         1 <0>         0.3787
     68 H34         9.8016  -14.0662   -6.7125 H         1 <0>         0.0563
     69 H35         9.7275  -13.4402   -5.0479 H         1 <0>         0.0559
     70 H36         8.1082  -15.1548   -5.4268 H         1 <0>         0.3858
     71 H37         1.3474  -11.7305   -4.3547 H         1 <0>         0.1177
     72 H38        -0.5526  -10.9430   -3.0008 H         1 <0>         0.1165
     73 H39        -1.8832   -9.0121   -3.7521 H         1 <0>         0.1160
     74 H40        -1.3132   -7.8681   -5.8567 H         1 <0>         0.1162
     75 H41         0.5920   -8.6504   -7.2063 H         1 <0>         0.1108
     76 H42         2.9895  -12.5334   -7.2183 H         1 <0>         0.3772
@<TRIPOS>BOND
     1    1    2 1
     2    1   37 1
     3    1   38 1
     4    1   39 1
     5    2    3 1
     6    2   40 1
     7    2   41 1
     8    3    4 1
     9    3   42 1
    10    3   43 1
    11    4    5 1
    12    4   44 1
    13    4   45 1
    14    5    6 1
    15    5   46 1
    16    5   47 1
    17    6    7 1
    18    6   48 1
    19    6   49 1
    20    7    8 1
    21    7   50 1
    22    7   51 1
    23    8    9 1
    24    8   52 1
    25    8   53 1
    26    9   10 1
    27    9   54 1
    28    9   55 1
    29   10   11 2
    30   10   12 am
    31   12   13 1
    32   12   56 1
    33   13   14 1
    34   13   15 1
    35   13   28 1
    36   15   16 1
    37   15   57 1
    38   15   58 1
    39   16   17 1
    40   16   59 1
    41   17   22 1
    42   17   18 1
    43   17   60 1
    44   18   19 2
    45   18   61 1
    46   19   20 1
    47   19   26 1
    48   20   21 1
    49   20   25 1
    50   20   62 1
    51   21   22 1
    52   21   24 1
    53   21   63 1
    54   22   23 1
    55   22   64 1
    56   23   65 1
    57   24   66 1
    58   25   67 1
    59   26   27 1
    60   26   68 1
    61   26   69 1
    62   27   70 1
    63   28   29 1
    64   28   30 1
    65   28   36 1
    66   30   35 ar
    67   30   31 ar
    68   31   32 ar
    69   31   71 1
    70   32   33 ar
    71   32   72 1
    72   33   34 ar
    73   33   73 1
    74   34   35 ar
    75   34   74 1
    76   35   75 1
    77   36   76 1
@<TRIPOS>MOLECULE
CHEMBL57496__16
   77    78     0     0     0
SMALL
USER_CHARGES

@<TRIPOS>ATOM
      1 C1         -0.0187    1.5258    0.0104 C.3       1 <0>        -0.1550
      2 C2          0.0021   -0.0041    0.0020 C.3       1 <0>        -0.1264
      3 C3         -1.4333   -0.5336    0.0129 C.3       1 <0>        -0.1210
      4 C4         -1.4126   -2.0635    0.0045 C.3       1 <0>        -0.1218
      5 C5         -2.8479   -2.5931    0.0153 C.3       1 <0>        -0.1200
      6 C6         -2.8272   -4.1229    0.0069 C.3       1 <0>        -0.1201
      7 C7         -4.2626   -4.6525    0.0178 C.3       1 <0>        -0.1198
      8 C8         -4.2418   -6.1823    0.0094 C.3       1 <0>        -0.1038
      9 C9         -5.6772   -6.7119    0.0202 C.3       1 <0>        -0.1394
     10 C10        -5.6568   -8.2187    0.0119 C.2       1 <0>         0.5144
     11 O1         -4.5984   -8.8108   -0.0014 O.2       1 <0>        -0.4901
     12 N1         -6.8147   -8.9084    0.0193 N.am      1 <0>        -0.7513
     13 C11        -6.7948  -10.3733    0.0112 C.3       1 <0>         0.0951
     14 H1         -5.9538  -10.7220   -0.5882 H         1 <0>         0.1168
     15 C12        -8.1009  -10.8977   -0.5888 C.3       1 <0>        -0.0181
     16 N2         -8.3005  -10.3073   -1.9190 N.4       1 <0>        -0.4993
     17 C13        -9.5545  -10.8109   -2.4951 C.3       1 <0>         0.0790
     18 C14       -10.7093  -10.3434   -1.6585 C.2       1 <0>        -0.1921
     19 C15       -11.8207   -9.8914   -2.1442 C.2       1 <0>        -0.0875
     20 C16       -12.1057   -9.7616   -3.6118 C.3       1 <0>         0.0969
     21 C17       -11.1174  -10.6077   -4.4175 C.3       1 <0>         0.0949
     22 C18        -9.6982  -10.2934   -3.9280 C.3       1 <0>         0.0963
     23 O2         -8.7444  -10.9426   -4.7711 O.3       1 <0>        -0.5627
     24 O3        -11.2292  -10.2855   -5.8052 O.3       1 <0>        -0.5442
     25 O4        -11.9821   -8.3917   -3.9991 O.3       1 <0>        -0.5383
     26 C19       -12.8950   -9.4686   -1.1756 C.3       1 <0>         0.0961
     27 O5        -12.4347   -9.6670    0.1626 O.3       1 <0>        -0.5745
     28 C20        -6.6485  -10.8892    1.4442 C.3       1 <0>         0.1485
     29 H2         -7.4895  -10.5406    2.0435 H         1 <0>         0.1163
     30 C21        -5.3620  -10.3726    2.0351 C.ar      1 <0>        -0.1188
     31 C22        -4.1629  -10.9855    1.7231 C.ar      1 <0>        -0.0860
     32 C23        -2.9829  -10.5117    2.2652 C.ar      1 <0>        -0.1047
     33 C24        -3.0019   -9.4247    3.1190 C.ar      1 <0>        -0.1037
     34 C25        -4.2009   -8.8112    3.4303 C.ar      1 <0>        -0.1143
     35 C26        -5.3805   -9.2824    2.8849 C.ar      1 <0>        -0.1080
     36 O6         -6.6291  -12.3181    1.4363 O.3       1 <0>        -0.5461
     37 H3          1.0039    1.9031    0.0027 H         1 <0>         0.0549
     38 H4         -0.5459    1.8868   -0.8726 H         1 <0>         0.0535
     39 H5         -0.5289    1.8773    0.9072 H         1 <0>         0.0536
     40 H6          0.5123   -0.3556   -0.8948 H         1 <0>         0.0605
     41 H7          0.5293   -0.3651    0.8851 H         1 <0>         0.0607
     42 H8         -1.9435   -0.1821    0.9097 H         1 <0>         0.0607
     43 H9         -1.9605   -0.1726   -0.8702 H         1 <0>         0.0605
     44 H10        -0.9024   -2.4150   -0.8923 H         1 <0>         0.0609
     45 H11        -0.8854   -2.4246    0.8875 H         1 <0>         0.0612
     46 H12        -3.3581   -2.2415    0.9121 H         1 <0>         0.0609
     47 H13        -3.3751   -2.2320   -0.8677 H         1 <0>         0.0604
     48 H14        -2.3170   -4.4744   -0.8899 H         1 <0>         0.0619
     49 H15        -2.3000   -4.4840    0.8900 H         1 <0>         0.0626
     50 H16        -4.7728   -4.3010    0.9146 H         1 <0>         0.0626
     51 H17        -4.7898   -4.2914   -0.8653 H         1 <0>         0.0614
     52 H18        -3.7316   -6.5338   -0.8874 H         1 <0>         0.0693
     53 H19        -3.7146   -6.5434    0.8924 H         1 <0>         0.0723
     54 H20        -6.1874   -6.3604    0.9170 H         1 <0>         0.0969
     55 H21        -6.2044   -6.3508   -0.8628 H         1 <0>         0.0929
     56 H22        -7.6612   -8.4349    0.0299 H         1 <0>         0.4009
     57 H23        -8.0503  -11.9830   -0.6768 H         1 <0>         0.1560
     58 H24        -8.9339  -10.6242    0.0588 H         1 <0>         0.1439
     59 H25        -8.3473   -9.3027   -1.8375 H         1 <0>         0.4231
     60 H26        -9.5357  -11.9007   -2.5047 H         1 <0>         0.1590
     61 H27       -10.6068  -10.3873   -0.5842 H         1 <0>         0.1586
     62 H28       -13.1213  -10.1019   -3.8141 H         1 <0>         0.0878
     63 H29       -11.3317  -11.6655   -4.2654 H         1 <0>         0.0910
     64 H30        -9.5347   -9.2159   -3.9465 H         1 <0>         0.0956
     65 H31        -8.7804  -10.6608   -5.6954 H         1 <0>         0.4159
     66 H32       -12.1077  -10.4449   -6.1765 H         1 <0>         0.3998
     67 H33       -12.5870   -7.7960   -3.5361 H         1 <0>         0.3887
     68 H34       -13.1268   -8.4144   -1.3276 H         1 <0>         0.0746
     69 H35       -13.7913  -10.0656   -1.3439 H         1 <0>         0.0770
     70 H36       -13.0766   -9.4154    0.8407 H         1 <0>         0.4004
     71 H37        -4.1480  -11.8347    1.0560 H         1 <0>         0.1119
     72 H38        -2.0461  -10.9909    2.0219 H         1 <0>         0.1223
     73 H39        -2.0801   -9.0549    3.5431 H         1 <0>         0.1227
     74 H40        -4.2159   -7.9622    4.0977 H         1 <0>         0.1216
     75 H41        -6.3168   -8.8009    3.1252 H         1 <0>         0.1142
     76 H42        -5.9051  -12.6988    0.9206 H         1 <0>         0.3820
     77 H43        -7.5294  -10.5605   -2.5185 H         1 <0>         0.4380
@<TRIPOS>BOND
     1    1    2 1
     2    1   37 1
     3    1   38 1
     4    1   39 1
     5    2    3 1
     6    2   40 1
     7    2   41 1
     8    3    4 1
     9    3   42 1
    10    3   43 1
    11    4    5 1
    12    4   44 1
    13    4   45 1
    14    5    6 1
    15    5   46 1
    16    5   47 1
    17    6    7 1
    18    6   48 1
    19    6   49 1
    20    7    8 1
    21    7   50 1
    22    7   51 1
    23    8    9 1
    24    8   52 1
    25    8   53 1
    26    9   10 1
    27    9   54 1
    28    9   55 1
    29   10   11 2
    30   10   12 am
    31   12   13 1
    32   12   56 1
    33   13   14 1
    34   13   15 1
    35   13   28 1
    36   15   16 1
    37   15   57 1
    38   15   58 1
    39   16   17 1
    40   16   59 1
    41   16   77 1
    42   17   22 1
    43   17   18 1
    44   17   60 1
    45   18   19 2
    46   18   61 1
    47   19   20 1
    48   19   26 1
    49   20   21 1
    50   20   25 1
    51   20   62 1
    52   21   22 1
    53   21   24 1
    54   21   63 1
    55   22   23 1
    56   22   64 1
    57   23   65 1
    58   24   66 1
    59   25   67 1
    60   26   27 1
    61   26   68 1
    62   26   69 1
    63   27   70 1
    64   28   29 1
    65   28   30 1
    66   28   36 1
    67   30   35 ar
    68   30   31 ar
    69   31   32 ar
    70   31   71 1
    71   32   33 ar
    72   32   72 1
    73   33   34 ar
    74   33   73 1
    75   34   35 ar
    76   34   74 1
    77   35   75 1
    78   36   76 1
@<TRIPOS>MOLECULE
CHEMBL57496__17
   76    77     0     0     0
SMALL
USER_CHARGES

@<TRIPOS>ATOM
      1 C1         -0.0187    1.5258    0.0104 C.3       1 <0>        -0.1541
      2 C2          0.0021   -0.0041    0.0020 C.3       1 <0>        -0.1264
      3 C3          0.7182   -0.4975   -1.2568 C.3       1 <0>        -0.1208
      4 C4          0.7390   -2.0273   -1.2652 C.3       1 <0>        -0.1216
      5 C5          1.4551   -2.5207   -2.5240 C.3       1 <0>        -0.1197
      6 C6          1.4758   -4.0506   -2.5324 C.3       1 <0>        -0.1196
      7 C7          2.1920   -4.5440   -3.7912 C.3       1 <0>        -0.1193
      8 C8          2.2127   -6.0738   -3.7996 C.3       1 <0>        -0.1013
      9 C9          2.9289   -6.5673   -5.0584 C.3       1 <0>        -0.1393
     10 C10         2.9493   -8.0741   -5.0667 C.2       1 <0>         0.5137
     11 O1          2.4411   -8.6925   -4.1555 O.2       1 <0>        -0.5102
     12 N1          3.5323   -8.7345   -6.0867 N.am      1 <0>        -0.7276
     13 C11         3.5522  -10.1994   -6.0948 C.3       1 <0>         0.1246
     14 H1          3.6564  -10.5669   -5.0739 H         1 <0>         0.1074
     15 C12         4.7327  -10.6888   -6.9361 C.3       1 <0>         0.0455
     16 N2          5.9753  -10.0889   -6.4321 N.3       1 <0>        -0.6593
     17 C13         7.1327  -10.5372   -7.2177 C.3       1 <0>         0.1226
     18 C14         7.2684   -9.6762   -8.4393 C.2       1 <0>        -0.1411
     19 C15         8.3950   -9.2174   -8.8817 C.2       1 <0>        -0.1656
     20 C16         9.7218   -9.4735   -8.2288 C.3       1 <0>         0.1161
     21 C17         9.6153  -10.6577   -7.2655 C.3       1 <0>         0.0832
     22 C18         8.3965  -10.4388   -6.3604 C.3       1 <0>         0.1353
     23 O2          8.3666  -11.4424   -5.3436 O.3       1 <0>        -0.5481
     24 O3         10.7982  -10.7358   -6.4676 O.3       1 <0>        -0.5491
     25 O4         10.1264   -8.3094   -7.5055 O.3       1 <0>        -0.5420
     26 C19         8.3729   -8.3730  -10.1297 C.3       1 <0>         0.1087
     27 O5          7.0278   -8.2460  -10.5951 O.3       1 <0>        -0.5701
     28 C20         2.2461  -10.7238   -6.6948 C.3       1 <0>         0.1390
     29 H2          2.1419  -10.3563   -7.7156 H         1 <0>         0.0614
     30 C21         1.0834  -10.2418   -5.8661 C.ar      1 <0>        -0.0686
     31 C22         0.7639  -10.8834   -4.6841 C.ar      1 <0>        -0.0642
     32 C23        -0.3026  -10.4413   -3.9240 C.ar      1 <0>        -0.1149
     33 C24        -1.0495   -9.3571   -4.3456 C.ar      1 <0>        -0.1129
     34 C25        -0.7295   -8.7149   -5.5271 C.ar      1 <0>        -0.1220
     35 C26         0.3397   -9.1544   -6.2851 C.ar      1 <0>        -0.1124
     36 O6          2.2655  -12.1527   -6.7026 O.3       1 <0>        -0.5524
     37 H3          1.0039    1.9031    0.0027 H         1 <0>         0.0532
     38 H4         -0.5459    1.8868   -0.8726 H         1 <0>         0.0531
     39 H5         -0.5289    1.8773    0.9072 H         1 <0>         0.0533
     40 H6          0.5293   -0.3651    0.8851 H         1 <0>         0.0604
     41 H7         -1.0205   -0.3814    0.0098 H         1 <0>         0.0603
     42 H8          0.1910   -0.1364   -2.1398 H         1 <0>         0.0602
     43 H9          1.7408   -0.1202   -1.2645 H         1 <0>         0.0603
     44 H10         1.2661   -2.3884   -0.3821 H         1 <0>         0.0609
     45 H11        -0.2836   -2.4046   -1.2575 H         1 <0>         0.0607
     46 H12         0.9279   -2.1597   -3.4071 H         1 <0>         0.0599
     47 H13         2.4777   -2.1435   -2.5317 H         1 <0>         0.0601
     48 H14         2.0030   -4.4117   -1.6494 H         1 <0>         0.0617
     49 H15         0.4533   -4.4279   -2.5247 H         1 <0>         0.0616
     50 H16         1.6648   -4.1829   -4.6743 H         1 <0>         0.0601
     51 H17         3.2146   -4.1667   -3.7990 H         1 <0>         0.0603
     52 H18         2.7399   -6.4349   -2.9166 H         1 <0>         0.0683
     53 H19         1.1901   -6.4511   -3.7919 H         1 <0>         0.0700
     54 H20         2.4017   -6.2062   -5.9415 H         1 <0>         0.0882
     55 H21         3.9515   -6.1900   -5.0662 H         1 <0>         0.0889
     56 H22         3.9388   -8.2400   -6.8155 H         1 <0>         0.3947
     57 H23         4.8005  -11.7747   -6.8700 H         1 <0>         0.0920
     58 H24         4.5838  -10.3967   -7.9756 H         1 <0>         0.0393
     59 H25         5.9128   -9.0819   -6.4227 H         1 <0>         0.3441
     60 H26         6.9830  -11.5729   -7.5229 H         1 <0>         0.1005
     61 H27         6.3702   -9.4240   -8.9833 H         1 <0>         0.1318
     62 H28        10.4643   -9.6967   -8.9949 H         1 <0>         0.0669
     63 H29         9.4901  -11.5806   -7.8318 H         1 <0>         0.0774
     64 H30         8.4529   -9.4510   -5.9030 H         1 <0>         0.0721
     65 H31         9.1396  -11.4368   -4.7626 H         1 <0>         0.3850
     66 H32        11.6100  -10.8578   -6.9786 H         1 <0>         0.3835
     67 H33        10.2253   -7.5197   -8.0547 H         1 <0>         0.3773
     68 H34         8.7751   -7.3847   -9.9069 H         1 <0>         0.0578
     69 H35         8.9808   -8.8473  -10.9001 H         1 <0>         0.0596
     70 H36         6.9379   -7.7138  -11.3975 H         1 <0>         0.3869
     71 H37         1.3474  -11.7305   -4.3547 H         1 <0>         0.1182
     72 H38        -0.5526  -10.9430   -3.0008 H         1 <0>         0.1168
     73 H39        -1.8832   -9.0121   -3.7521 H         1 <0>         0.1160
     74 H40        -1.3132   -7.8681   -5.8567 H         1 <0>         0.1160
     75 H41         0.5920   -8.6504   -7.2063 H         1 <0>         0.1103
     76 H42         2.9895  -12.5334   -7.2183 H         1 <0>         0.3774
@<TRIPOS>BOND
     1    1    2 1
     2    1   37 1
     3    1   38 1
     4    1   39 1
     5    2    3 1
     6    2   40 1
     7    2   41 1
     8    3    4 1
     9    3   42 1
    10    3   43 1
    11    4    5 1
    12    4   44 1
    13    4   45 1
    14    5    6 1
    15    5   46 1
    16    5   47 1
    17    6    7 1
    18    6   48 1
    19    6   49 1
    20    7    8 1
    21    7   50 1
    22    7   51 1
    23    8    9 1
    24    8   52 1
    25    8   53 1
    26    9   10 1
    27    9   54 1
    28    9   55 1
    29   10   11 2
    30   10   12 am
    31   12   13 1
    32   12   56 1
    33   13   14 1
    34   13   15 1
    35   13   28 1
    36   15   16 1
    37   15   57 1
    38   15   58 1
    39   16   17 1
    40   16   59 1
    41   17   22 1
    42   17   18 1
    43   17   60 1
    44   18   19 2
    45   18   61 1
    46   19   20 1
    47   19   26 1
    48   20   21 1
    49   20   25 1
    50   20   62 1
    51   21   22 1
    52   21   24 1
    53   21   63 1
    54   22   23 1
    55   22   64 1
    56   23   65 1
    57   24   66 1
    58   25   67 1
    59   26   27 1
    60   26   68 1
    61   26   69 1
    62   27   70 1
    63   28   29 1
    64   28   30 1
    65   28   36 1
    66   30   35 ar
    67   30   31 ar
    68   31   32 ar
    69   31   71 1
    70   32   33 ar
    71   32   72 1
    72   33   34 ar
    73   33   73 1
    74   34   35 ar
    75   34   74 1
    76   35   75 1
    77   36   76 1
@<TRIPOS>MOLECULE
CHEMBL57496__18
   77    78     0     0     0
SMALL
USER_CHARGES

@<TRIPOS>ATOM
      1 C1         -0.0187    1.5258    0.0104 C.3       1 <0>        -0.1550
      2 C2          0.0021   -0.0041    0.0020 C.3       1 <0>        -0.1264
      3 C3         -1.4333   -0.5336    0.0129 C.3       1 <0>        -0.1211
      4 C4         -1.4126   -2.0635    0.0045 C.3       1 <0>        -0.1217
      5 C5         -2.8479   -2.5931    0.0153 C.3       1 <0>        -0.1201
      6 C6         -2.8272   -4.1229    0.0069 C.3       1 <0>        -0.1199
      7 C7         -4.2626   -4.6525    0.0178 C.3       1 <0>        -0.1200
      8 C8         -4.2418   -6.1823    0.0094 C.3       1 <0>        -0.1032
      9 C9         -5.6772   -6.7119    0.0202 C.3       1 <0>        -0.1396
     10 C10        -5.6568   -8.2187    0.0119 C.2       1 <0>         0.5157
     11 O1         -4.5984   -8.8108   -0.0014 O.2       1 <0>        -0.4923
     12 N1         -6.8147   -8.9084    0.0193 N.am      1 <0>        -0.7502
     13 C11        -6.7948  -10.3733    0.0112 C.3       1 <0>         0.0959
     14 H1         -5.9538  -10.7220   -0.5882 H         1 <0>         0.1158
     15 C12        -8.1009  -10.8977   -0.5888 C.3       1 <0>        -0.0195
     16 N2         -8.3005  -10.3073   -1.9190 N.4       1 <0>        -0.4962
     17 C13        -9.5545  -10.8109   -2.4951 C.3       1 <0>         0.0811
     18 C14       -10.7093  -10.3434   -1.6585 C.2       1 <0>        -0.1915
     19 C15       -11.8207   -9.8914   -2.1442 C.2       1 <0>        -0.0807
     20 C16       -12.1057   -9.7616   -3.6118 C.3       1 <0>         0.1071
     21 C17       -11.1174  -10.6077   -4.4175 C.3       1 <0>         0.0889
     22 C18        -9.6982  -10.2934   -3.9280 C.3       1 <0>         0.0951
     23 O2         -9.4839   -8.8808   -3.9523 O.3       1 <0>        -0.5532
     24 O3        -11.2292  -10.2855   -5.8052 O.3       1 <0>        -0.5449
     25 O4        -11.9821   -8.3917   -3.9991 O.3       1 <0>        -0.5284
     26 C19       -12.8950   -9.4686   -1.1756 C.3       1 <0>         0.0963
     27 O5        -12.4347   -9.6670    0.1626 O.3       1 <0>        -0.5745
     28 C20        -6.6485  -10.8892    1.4442 C.3       1 <0>         0.1481
     29 H2         -7.4895  -10.5406    2.0435 H         1 <0>         0.1162
     30 C21        -5.3620  -10.3726    2.0351 C.ar      1 <0>        -0.1184
     31 C22        -4.1629  -10.9855    1.7231 C.ar      1 <0>        -0.0861
     32 C23        -2.9829  -10.5117    2.2652 C.ar      1 <0>        -0.1049
     33 C24        -3.0019   -9.4247    3.1190 C.ar      1 <0>        -0.1038
     34 C25        -4.2009   -8.8112    3.4303 C.ar      1 <0>        -0.1141
     35 C26        -5.3805   -9.2824    2.8849 C.ar      1 <0>        -0.1079
     36 O6         -6.6291  -12.3181    1.4363 O.3       1 <0>        -0.5462
     37 H3          1.0039    1.9031    0.0027 H         1 <0>         0.0548
     38 H4         -0.5459    1.8868   -0.8726 H         1 <0>         0.0535
     39 H5         -0.5289    1.8773    0.9072 H         1 <0>         0.0536
     40 H6          0.5123   -0.3556   -0.8948 H         1 <0>         0.0604
     41 H7          0.5293   -0.3651    0.8851 H         1 <0>         0.0606
     42 H8         -1.9435   -0.1821    0.9097 H         1 <0>         0.0607
     43 H9         -1.9605   -0.1726   -0.8702 H         1 <0>         0.0605
     44 H10        -0.9024   -2.4150   -0.8923 H         1 <0>         0.0609
     45 H11        -0.8854   -2.4246    0.8875 H         1 <0>         0.0612
     46 H12        -3.3581   -2.2415    0.9121 H         1 <0>         0.0609
     47 H13        -3.3751   -2.2320   -0.8677 H         1 <0>         0.0605
     48 H14        -2.3170   -4.4744   -0.8899 H         1 <0>         0.0618
     49 H15        -2.3000   -4.4840    0.8900 H         1 <0>         0.0624
     50 H16        -4.7728   -4.3010    0.9146 H         1 <0>         0.0625
     51 H17        -4.7898   -4.2914   -0.8653 H         1 <0>         0.0616
     52 H18        -3.7316   -6.5338   -0.8874 H         1 <0>         0.0690
     53 H19        -3.7146   -6.5434    0.8924 H         1 <0>         0.0719
     54 H20        -6.1874   -6.3604    0.9170 H         1 <0>         0.0964
     55 H21        -6.2044   -6.3508   -0.8628 H         1 <0>         0.0938
     56 H22        -7.6612   -8.4349    0.0299 H         1 <0>         0.4019
     57 H23        -8.0503  -11.9830   -0.6768 H         1 <0>         0.1545
     58 H24        -8.9339  -10.6242    0.0588 H         1 <0>         0.1435
     59 H25        -8.3473   -9.3027   -1.8375 H         1 <0>         0.4337
     60 H26        -9.5357  -11.9007   -2.5047 H         1 <0>         0.1586
     61 H27       -10.6068  -10.3873   -0.5842 H         1 <0>         0.1515
     62 H28       -13.1213  -10.1019   -3.8141 H         1 <0>         0.0791
     63 H29       -11.3317  -11.6655   -4.2654 H         1 <0>         0.0888
     64 H30        -8.9707  -10.7886   -4.5711 H         1 <0>         0.0945
     65 H31        -9.5603   -8.4865   -4.8319 H         1 <0>         0.4151
     66 H32       -12.1077  -10.4449   -6.1765 H         1 <0>         0.3984
     67 H33       -12.5870   -7.7960   -3.5361 H         1 <0>         0.3838
     68 H34       -13.1268   -8.4144   -1.3276 H         1 <0>         0.0729
     69 H35       -13.7913  -10.0656   -1.3439 H         1 <0>         0.0741
     70 H36       -13.0766   -9.4154    0.8407 H         1 <0>         0.3988
     71 H37        -4.1480  -11.8347    1.0560 H         1 <0>         0.1115
     72 H38        -2.0461  -10.9909    2.0219 H         1 <0>         0.1221
     73 H39        -2.0801   -9.0549    3.5431 H         1 <0>         0.1227
     74 H40        -4.2159   -7.9622    4.0977 H         1 <0>         0.1217
     75 H41        -6.3168   -8.8009    3.1252 H         1 <0>         0.1143
     76 H42        -5.9051  -12.6988    0.9206 H         1 <0>         0.3814
     77 H43        -7.5294  -10.5605   -2.5185 H         1 <0>         0.4299
@<TRIPOS>BOND
     1    1    2 1
     2    1   37 1
     3    1   38 1
     4    1   39 1
     5    2    3 1
     6    2   40 1
     7    2   41 1
     8    3    4 1
     9    3   42 1
    10    3   43 1
    11    4    5 1
    12    4   44 1
    13    4   45 1
    14    5    6 1
    15    5   46 1
    16    5   47 1
    17    6    7 1
    18    6   48 1
    19    6   49 1
    20    7    8 1
    21    7   50 1
    22    7   51 1
    23    8    9 1
    24    8   52 1
    25    8   53 1
    26    9   10 1
    27    9   54 1
    28    9   55 1
    29   10   11 2
    30   10   12 am
    31   12   13 1
    32   12   56 1
    33   13   14 1
    34   13   15 1
    35   13   28 1
    36   15   16 1
    37   15   57 1
    38   15   58 1
    39   16   17 1
    40   16   59 1
    41   16   77 1
    42   17   22 1
    43   17   18 1
    44   17   60 1
    45   18   19 2
    46   18   61 1
    47   19   20 1
    48   19   26 1
    49   20   21 1
    50   20   25 1
    51   20   62 1
    52   21   22 1
    53   21   24 1
    54   21   63 1
    55   22   23 1
    56   22   64 1
    57   23   65 1
    58   24   66 1
    59   25   67 1
    60   26   27 1
    61   26   68 1
    62   26   69 1
    63   27   70 1
    64   28   29 1
    65   28   30 1
    66   28   36 1
    67   30   35 ar
    68   30   31 ar
    69   31   32 ar
    70   31   71 1
    71   32   33 ar
    72   32   72 1
    73   33   34 ar
    74   33   73 1
    75   34   35 ar
    76   34   74 1
    77   35   75 1
    78   36   76 1
@<TRIPOS>MOLECULE
CHEMBL57496__19
   76    77     0     0     0
SMALL
USER_CHARGES

@<TRIPOS>ATOM
      1 C1         -0.0187    1.5258    0.0104 C.3       1 <0>        -0.1541
      2 C2          0.0021   -0.0041    0.0020 C.3       1 <0>        -0.1263
      3 C3          0.7182   -0.4975   -1.2568 C.3       1 <0>        -0.1209
      4 C4          0.7390   -2.0273   -1.2652 C.3       1 <0>        -0.1215
      5 C5          1.4551   -2.5207   -2.5240 C.3       1 <0>        -0.1197
      6 C6          1.4758   -4.0506   -2.5324 C.3       1 <0>        -0.1194
      7 C7          2.1920   -4.5440   -3.7912 C.3       1 <0>        -0.1194
      8 C8          2.2127   -6.0738   -3.7996 C.3       1 <0>        -0.1008
      9 C9          2.9289   -6.5673   -5.0584 C.3       1 <0>        -0.1395
     10 C10         2.9493   -8.0741   -5.0667 C.2       1 <0>         0.5151
     11 O1          2.4411   -8.6925   -4.1555 O.2       1 <0>        -0.5120
     12 N1          3.5323   -8.7345   -6.0867 N.am      1 <0>        -0.7266
     13 C11         3.5522  -10.1994   -6.0948 C.3       1 <0>         0.1255
     14 H1          3.6564  -10.5669   -5.0739 H         1 <0>         0.1062
     15 C12         4.7327  -10.6888   -6.9361 C.3       1 <0>         0.0409
     16 N2          5.9753  -10.0889   -6.4321 N.3       1 <0>        -0.6585
     17 C13         7.1327  -10.5372   -7.2177 C.3       1 <0>         0.1243
     18 C14         7.2684   -9.6762   -8.4393 C.2       1 <0>        -0.1403
     19 C15         8.3950   -9.2174   -8.8817 C.2       1 <0>        -0.1593
     20 C16         9.7218   -9.4735   -8.2288 C.3       1 <0>         0.1262
     21 C17         9.6153  -10.6577   -7.2655 C.3       1 <0>         0.0773
     22 C18         8.3965  -10.4388   -6.3604 C.3       1 <0>         0.1336
     23 O2          8.4704   -9.1438   -5.7607 O.3       1 <0>        -0.5359
     24 O3         10.7982  -10.7358   -6.4676 O.3       1 <0>        -0.5501
     25 O4         10.1264   -8.3094   -7.5055 O.3       1 <0>        -0.5314
     26 C19         8.3729   -8.3730  -10.1297 C.3       1 <0>         0.1088
     27 O5          7.0278   -8.2460  -10.5951 O.3       1 <0>        -0.5701
     28 C20         2.2461  -10.7238   -6.6948 C.3       1 <0>         0.1386
     29 H2          2.1419  -10.3563   -7.7156 H         1 <0>         0.0615
     30 C21         1.0834  -10.2418   -5.8661 C.ar      1 <0>        -0.0685
     31 C22         0.7639  -10.8834   -4.6841 C.ar      1 <0>        -0.0644
     32 C23        -0.3026  -10.4413   -3.9240 C.ar      1 <0>        -0.1150
     33 C24        -1.0495   -9.3571   -4.3456 C.ar      1 <0>        -0.1128
     34 C25        -0.7295   -8.7149   -5.5271 C.ar      1 <0>        -0.1217
     35 C26         0.3397   -9.1544   -6.2851 C.ar      1 <0>        -0.1122
     36 O6          2.2655  -12.1527   -6.7026 O.3       1 <0>        -0.5527
     37 H3          1.0039    1.9031    0.0027 H         1 <0>         0.0532
     38 H4         -0.5459    1.8868   -0.8726 H         1 <0>         0.0531
     39 H5         -0.5289    1.8773    0.9072 H         1 <0>         0.0533
     40 H6          0.5293   -0.3651    0.8851 H         1 <0>         0.0604
     41 H7         -1.0205   -0.3814    0.0098 H         1 <0>         0.0603
     42 H8          0.1910   -0.1364   -2.1398 H         1 <0>         0.0602
     43 H9          1.7408   -0.1202   -1.2645 H         1 <0>         0.0603
     44 H10         1.2661   -2.3884   -0.3821 H         1 <0>         0.0609
     45 H11        -0.2836   -2.4046   -1.2575 H         1 <0>         0.0606
     46 H12         0.9279   -2.1597   -3.4071 H         1 <0>         0.0599
     47 H13         2.4777   -2.1435   -2.5317 H         1 <0>         0.0602
     48 H14         2.0030   -4.4117   -1.6494 H         1 <0>         0.0616
     49 H15         0.4533   -4.4279   -2.5247 H         1 <0>         0.0614
     50 H16         1.6648   -4.1829   -4.6743 H         1 <0>         0.0600
     51 H17         3.2146   -4.1667   -3.7990 H         1 <0>         0.0607
     52 H18         2.7399   -6.4349   -2.9166 H         1 <0>         0.0682
     53 H19         1.1901   -6.4511   -3.7919 H         1 <0>         0.0696
     54 H20         2.4017   -6.2062   -5.9415 H         1 <0>         0.0878
     55 H21         3.9515   -6.1900   -5.0662 H         1 <0>         0.0898
     56 H22         3.9388   -8.2400   -6.8155 H         1 <0>         0.3953
     57 H23         4.8005  -11.7747   -6.8700 H         1 <0>         0.0895
     58 H24         4.5838  -10.3967   -7.9756 H         1 <0>         0.0391
     59 H25         5.9128   -9.0819   -6.4227 H         1 <0>         0.3547
     60 H26         6.9830  -11.5729   -7.5229 H         1 <0>         0.0996
     61 H27         6.3702   -9.4240   -8.9833 H         1 <0>         0.1242
     62 H28        10.4643   -9.6967   -8.9949 H         1 <0>         0.0578
     63 H29         9.4901  -11.5806   -7.8318 H         1 <0>         0.0754
     64 H30         8.3737  -11.2043   -5.5848 H         1 <0>         0.0690
     65 H31         9.2491   -9.0127   -5.2025 H         1 <0>         0.3831
     66 H32        11.6100  -10.8578   -6.9786 H         1 <0>         0.3821
     67 H33        10.2253   -7.5197   -8.0547 H         1 <0>         0.3722
     68 H34         8.7751   -7.3847   -9.9069 H         1 <0>         0.0561
     69 H35         8.9808   -8.8473  -10.9001 H         1 <0>         0.0566
     70 H36         6.9379   -7.7138  -11.3975 H         1 <0>         0.3853
     71 H37         1.3474  -11.7305   -4.3547 H         1 <0>         0.1178
     72 H38        -0.5526  -10.9430   -3.0008 H         1 <0>         0.1166
     73 H39        -1.8832   -9.0121   -3.7521 H         1 <0>         0.1160
     74 H40        -1.3132   -7.8681   -5.8567 H         1 <0>         0.1161
     75 H41         0.5920   -8.6504   -7.2063 H         1 <0>         0.1104
     76 H42         2.9895  -12.5334   -7.2183 H         1 <0>         0.3768
@<TRIPOS>BOND
     1    1    2 1
     2    1   37 1
     3    1   38 1
     4    1   39 1
     5    2    3 1
     6    2   40 1
     7    2   41 1
     8    3    4 1
     9    3   42 1
    10    3   43 1
    11    4    5 1
    12    4   44 1
    13    4   45 1
    14    5    6 1
    15    5   46 1
    16    5   47 1
    17    6    7 1
    18    6   48 1
    19    6   49 1
    20    7    8 1
    21    7   50 1
    22    7   51 1
    23    8    9 1
    24    8   52 1
    25    8   53 1
    26    9   10 1
    27    9   54 1
    28    9   55 1
    29   10   11 2
    30   10   12 am
    31   12   13 1
    32   12   56 1
    33   13   14 1
    34   13   15 1
    35   13   28 1
    36   15   16 1
    37   15   57 1
    38   15   58 1
    39   16   17 1
    40   16   59 1
    41   17   22 1
    42   17   18 1
    43   17   60 1
    44   18   19 2
    45   18   61 1
    46   19   20 1
    47   19   26 1
    48   20   21 1
    49   20   25 1
    50   20   62 1
    51   21   22 1
    52   21   24 1
    53   21   63 1
    54   22   23 1
    55   22   64 1
    56   23   65 1
    57   24   66 1
    58   25   67 1
    59   26   27 1
    60   26   68 1
    61   26   69 1
    62   27   70 1
    63   28   29 1
    64   28   30 1
    65   28   36 1
    66   30   35 ar
    67   30   31 ar
    68   31   32 ar
    69   31   71 1
    70   32   33 ar
    71   32   72 1
    72   33   34 ar
    73   33   73 1
    74   34   35 ar
    75   34   74 1
    76   35   75 1
    77   36   76 1
@<TRIPOS>MOLECULE
CHEMBL57496__20
   77    78     0     0     0
SMALL
USER_CHARGES

@<TRIPOS>ATOM
      1 C1         -0.0187    1.5258    0.0104 C.3       1 <0>        -0.1550
      2 C2          0.0021   -0.0041    0.0020 C.3       1 <0>        -0.1264
      3 C3         -1.4333   -0.5336    0.0129 C.3       1 <0>        -0.1210
      4 C4         -1.4126   -2.0635    0.0045 C.3       1 <0>        -0.1218
      5 C5         -2.8479   -2.5931    0.0153 C.3       1 <0>        -0.1201
      6 C6         -2.8272   -4.1229    0.0069 C.3       1 <0>        -0.1200
      7 C7         -4.2626   -4.6525    0.0178 C.3       1 <0>        -0.1199
      8 C8         -4.2418   -6.1823    0.0094 C.3       1 <0>        -0.1037
      9 C9         -5.6772   -6.7119    0.0202 C.3       1 <0>        -0.1396
     10 C10        -5.6568   -8.2187    0.0119 C.2       1 <0>         0.5142
     11 O1         -4.5984   -8.8108   -0.0014 O.2       1 <0>        -0.4895
     12 N1         -6.8147   -8.9084    0.0193 N.am      1 <0>        -0.7521
     13 C11        -6.7948  -10.3733    0.0112 C.3       1 <0>         0.0940
     14 H1         -5.9538  -10.7220   -0.5882 H         1 <0>         0.1172
     15 C12        -8.1009  -10.8977   -0.5888 C.3       1 <0>        -0.0143
     16 N2         -8.3005  -10.3073   -1.9190 N.4       1 <0>        -0.5031
     17 C13        -9.5545  -10.8109   -2.4951 C.3       1 <0>         0.0735
     18 C14       -10.7093  -10.3434   -1.6585 C.2       1 <0>        -0.1966
     19 C15       -11.4976   -9.3713   -1.9888 C.2       1 <0>        -0.0741
     20 C16       -11.3733   -8.5828   -3.2596 C.3       1 <0>         0.1007
     21 C17        -9.9869   -8.7880   -3.8737 C.3       1 <0>         0.0798
     22 C18        -9.6982  -10.2934   -3.9280 C.3       1 <0>         0.1013
     23 O2        -10.7797  -10.9665   -4.5756 O.3       1 <0>        -0.5365
     24 O3         -9.9622   -8.2463   -5.1958 O.3       1 <0>        -0.5482
     25 O4        -11.5656   -7.1953   -2.9768 O.3       1 <0>        -0.5556
     26 C19       -12.6096   -9.0092   -1.0384 C.3       1 <0>         0.0922
     27 O5        -12.5599   -9.8684    0.1024 O.3       1 <0>        -0.5704
     28 C20        -6.6485  -10.8892    1.4442 C.3       1 <0>         0.1487
     29 H2         -7.4895  -10.5406    2.0435 H         1 <0>         0.1166
     30 C21        -5.3620  -10.3726    2.0351 C.ar      1 <0>        -0.1191
     31 C22        -4.1629  -10.9855    1.7231 C.ar      1 <0>        -0.0861
     32 C23        -2.9829  -10.5117    2.2652 C.ar      1 <0>        -0.1048
     33 C24        -3.0019   -9.4247    3.1190 C.ar      1 <0>        -0.1035
     34 C25        -4.2009   -8.8112    3.4303 C.ar      1 <0>        -0.1142
     35 C26        -5.3805   -9.2824    2.8849 C.ar      1 <0>        -0.1080
     36 O6         -6.6291  -12.3181    1.4363 O.3       1 <0>        -0.5454
     37 H3          1.0039    1.9031    0.0027 H         1 <0>         0.0549
     38 H4         -0.5459    1.8868   -0.8726 H         1 <0>         0.0535
     39 H5         -0.5289    1.8773    0.9072 H         1 <0>         0.0537
     40 H6          0.5123   -0.3556   -0.8948 H         1 <0>         0.0605
     41 H7          0.5293   -0.3651    0.8851 H         1 <0>         0.0607
     42 H8         -1.9435   -0.1821    0.9097 H         1 <0>         0.0608
     43 H9         -1.9605   -0.1726   -0.8702 H         1 <0>         0.0604
     44 H10        -0.9024   -2.4150   -0.8923 H         1 <0>         0.0609
     45 H11        -0.8854   -2.4246    0.8875 H         1 <0>         0.0613
     46 H12        -3.3581   -2.2415    0.9121 H         1 <0>         0.0610
     47 H13        -3.3751   -2.2320   -0.8677 H         1 <0>         0.0604
     48 H14        -2.3170   -4.4744   -0.8899 H         1 <0>         0.0618
     49 H15        -2.3000   -4.4840    0.8900 H         1 <0>         0.0627
     50 H16        -4.7728   -4.3010    0.9146 H         1 <0>         0.0628
     51 H17        -4.7898   -4.2914   -0.8653 H         1 <0>         0.0613
     52 H18        -3.7316   -6.5338   -0.8874 H         1 <0>         0.0692
     53 H19        -3.7146   -6.5434    0.8924 H         1 <0>         0.0726
     54 H20        -6.1874   -6.3604    0.9170 H         1 <0>         0.0972
     55 H21        -6.2044   -6.3508   -0.8628 H         1 <0>         0.0924
     56 H22        -7.6612   -8.4349    0.0299 H         1 <0>         0.4006
     57 H23        -8.0503  -11.9830   -0.6768 H         1 <0>         0.1583
     58 H24        -8.9339  -10.6242    0.0588 H         1 <0>         0.1461
     59 H25        -8.3473   -9.3027   -1.8375 H         1 <0>         0.4202
     60 H26        -9.5357  -11.9007   -2.5047 H         1 <0>         0.1664
     61 H27       -10.8943  -10.8498   -0.7227 H         1 <0>         0.1575
     62 H28       -12.1342   -8.9142   -3.9662 H         1 <0>         0.1020
     63 H29        -9.2363   -8.2929   -3.2576 H         1 <0>         0.0656
     64 H30        -8.7724  -10.4696   -4.4758 H         1 <0>         0.0969
     65 H31       -10.9269  -10.6860   -5.4892 H         1 <0>         0.4107
     66 H32       -10.1533   -7.2992   -5.2365 H         1 <0>         0.4055
     67 H33       -12.4291   -6.9879   -2.5943 H         1 <0>         0.3945
     68 H34       -12.4917   -7.9738   -0.7188 H         1 <0>         0.0769
     69 H35       -13.5697   -9.1273   -1.5406 H         1 <0>         0.0761
     70 H36       -13.2485   -9.6920    0.7580 H         1 <0>         0.3997
     71 H37        -4.1480  -11.8347    1.0560 H         1 <0>         0.1119
     72 H38        -2.0461  -10.9909    2.0219 H         1 <0>         0.1224
     73 H39        -2.0801   -9.0549    3.5431 H         1 <0>         0.1229
     74 H40        -4.2159   -7.9622    4.0977 H         1 <0>         0.1217
     75 H41        -6.3168   -8.8009    3.1252 H         1 <0>         0.1142
     76 H42        -5.9051  -12.6988    0.9206 H         1 <0>         0.3817
     77 H43        -7.5294  -10.5605   -2.5185 H         1 <0>         0.4305
@<TRIPOS>BOND
     1    1    2 1
     2    1   37 1
     3    1   38 1
     4    1   39 1
     5    2    3 1
     6    2   40 1
     7    2   41 1
     8    3    4 1
     9    3   42 1
    10    3   43 1
    11    4    5 1
    12    4   44 1
    13    4   45 1
    14    5    6 1
    15    5   46 1
    16    5   47 1
    17    6    7 1
    18    6   48 1
    19    6   49 1
    20    7    8 1
    21    7   50 1
    22    7   51 1
    23    8    9 1
    24    8   52 1
    25    8   53 1
    26    9   10 1
    27    9   54 1
    28    9   55 1
    29   10   11 2
    30   10   12 am
    31   12   13 1
    32   12   56 1
    33   13   14 1
    34   13   15 1
    35   13   28 1
    36   15   16 1
    37   15   57 1
    38   15   58 1
    39   16   17 1
    40   16   59 1
    41   16   77 1
    42   17   22 1
    43   17   18 1
    44   17   60 1
    45   18   19 2
    46   18   61 1
    47   19   20 1
    48   19   26 1
    49   20   21 1
    50   20   25 1
    51   20   62 1
    52   21   22 1
    53   21   24 1
    54   21   63 1
    55   22   23 1
    56   22   64 1
    57   23   65 1
    58   24   66 1
    59   25   67 1
    60   26   27 1
    61   26   68 1
    62   26   69 1
    63   27   70 1
    64   28   29 1
    65   28   30 1
    66   28   36 1
    67   30   35 ar
    68   30   31 ar
    69   31   32 ar
    70   31   71 1
    71   32   33 ar
    72   32   72 1
    73   33   34 ar
    74   33   73 1
    75   34   35 ar
    76   34   74 1
    77   35   75 1
    78   36   76 1
@<TRIPOS>MOLECULE
CHEMBL57496__21
   76    77     0     0     0
SMALL
USER_CHARGES

@<TRIPOS>ATOM
      1 C1         -0.0187    1.5258    0.0104 C.3       1 <0>        -0.1541
      2 C2          0.0021   -0.0041    0.0020 C.3       1 <0>        -0.1264
      3 C3          0.7182   -0.4975   -1.2568 C.3       1 <0>        -0.1209
      4 C4          0.7390   -2.0273   -1.2652 C.3       1 <0>        -0.1215
      5 C5          1.4551   -2.5207   -2.5240 C.3       1 <0>        -0.1197
      6 C6          1.4758   -4.0506   -2.5324 C.3       1 <0>        -0.1195
      7 C7          2.1920   -4.5440   -3.7912 C.3       1 <0>        -0.1194
      8 C8          2.2127   -6.0738   -3.7996 C.3       1 <0>        -0.1011
      9 C9          2.9289   -6.5673   -5.0584 C.3       1 <0>        -0.1396
     10 C10         2.9493   -8.0741   -5.0667 C.2       1 <0>         0.5138
     11 O1          2.4411   -8.6925   -4.1555 O.2       1 <0>        -0.5099
     12 N1          3.5323   -8.7345   -6.0867 N.am      1 <0>        -0.7283
     13 C11         3.5522  -10.1994   -6.0948 C.3       1 <0>         0.1237
     14 H1          3.6564  -10.5669   -5.0739 H         1 <0>         0.1073
     15 C12         4.7327  -10.6888   -6.9361 C.3       1 <0>         0.0455
     16 N2          5.9753  -10.0889   -6.4321 N.3       1 <0>        -0.6670
     17 C13         7.1327  -10.5372   -7.2177 C.3       1 <0>         0.1234
     18 C14         7.2684   -9.6762   -8.4393 C.2       1 <0>        -0.1521
     19 C15         8.1435   -8.7310   -8.5668 C.2       1 <0>        -0.1466
     20 C16         9.1517   -8.3710   -7.5150 C.3       1 <0>         0.1175
     21 C17         8.7352   -8.9558   -6.1637 C.3       1 <0>         0.0882
     22 C18         8.3965  -10.4388   -6.3604 C.3       1 <0>         0.1275
     23 O2          9.4791  -11.0945   -7.0237 O.3       1 <0>        -0.5597
     24 O3          9.8119   -8.8285   -5.2328 O.3       1 <0>        -0.5609
     25 O4          9.2384   -6.9486   -7.4091 O.3       1 <0>        -0.5629
     26 C19         8.1508   -7.9433   -9.8515 C.3       1 <0>         0.1052
     27 O5          7.1253   -8.4344  -10.7171 O.3       1 <0>        -0.5681
     28 C20         2.2461  -10.7238   -6.6948 C.3       1 <0>         0.1391
     29 H2          2.1419  -10.3563   -7.7156 H         1 <0>         0.0622
     30 C21         1.0834  -10.2418   -5.8661 C.ar      1 <0>        -0.0692
     31 C22         0.7639  -10.8834   -4.6841 C.ar      1 <0>        -0.0643
     32 C23        -0.3026  -10.4413   -3.9240 C.ar      1 <0>        -0.1149
     33 C24        -1.0495   -9.3571   -4.3456 C.ar      1 <0>        -0.1125
     34 C25        -0.7295   -8.7149   -5.5271 C.ar      1 <0>        -0.1218
     35 C26         0.3397   -9.1544   -6.2851 C.ar      1 <0>        -0.1122
     36 O6          2.2655  -12.1527   -6.7026 O.3       1 <0>        -0.5523
     37 H3          1.0039    1.9031    0.0027 H         1 <0>         0.0532
     38 H4         -0.5459    1.8868   -0.8726 H         1 <0>         0.0531
     39 H5         -0.5289    1.8773    0.9072 H         1 <0>         0.0534
     40 H6          0.5293   -0.3651    0.8851 H         1 <0>         0.0604
     41 H7         -1.0205   -0.3814    0.0098 H         1 <0>         0.0603
     42 H8          0.1910   -0.1364   -2.1398 H         1 <0>         0.0602
     43 H9          1.7408   -0.1202   -1.2645 H         1 <0>         0.0603
     44 H10         1.2661   -2.3884   -0.3821 H         1 <0>         0.0608
     45 H11        -0.2836   -2.4046   -1.2575 H         1 <0>         0.0607
     46 H12         0.9279   -2.1597   -3.4071 H         1 <0>         0.0600
     47 H13         2.4777   -2.1435   -2.5317 H         1 <0>         0.0601
     48 H14         2.0030   -4.4117   -1.6494 H         1 <0>         0.0616
     49 H15         0.4533   -4.4279   -2.5247 H         1 <0>         0.0616
     50 H16         1.6648   -4.1829   -4.6743 H         1 <0>         0.0603
     51 H17         3.2146   -4.1667   -3.7990 H         1 <0>         0.0604
     52 H18         2.7399   -6.4349   -2.9166 H         1 <0>         0.0682
     53 H19         1.1901   -6.4511   -3.7919 H         1 <0>         0.0702
     54 H20         2.4017   -6.2062   -5.9415 H         1 <0>         0.0885
     55 H21         3.9515   -6.1900   -5.0662 H         1 <0>         0.0889
     56 H22         3.9388   -8.2400   -6.8155 H         1 <0>         0.3951
     57 H23         4.8005  -11.7747   -6.8700 H         1 <0>         0.0938
     58 H24         4.5838  -10.3967   -7.9756 H         1 <0>         0.0441
     59 H25         5.9128   -9.0819   -6.4227 H         1 <0>         0.3459
     60 H26         6.9830  -11.5729   -7.5229 H         1 <0>         0.1045
     61 H27         6.5942   -9.8567   -9.2634 H         1 <0>         0.1271
     62 H28        10.1260   -8.7704   -7.7967 H         1 <0>         0.0805
     63 H29         7.8590   -8.4263   -5.7897 H         1 <0>         0.0749
     64 H30         8.2194  -10.9059   -5.3916 H         1 <0>         0.0844
     65 H31        10.3129  -11.0699   -6.5344 H         1 <0>         0.3888
     66 H32        10.0886   -7.9157   -5.0739 H         1 <0>         0.3892
     67 H33         9.5084   -6.5090   -8.2270 H         1 <0>         0.3810
     68 H34         7.9691   -6.8909   -9.6335 H         1 <0>         0.0605
     69 H35         9.1199   -8.0515  -10.3386 H         1 <0>         0.0584
     70 H36         7.0717   -7.9725  -11.5650 H         1 <0>         0.3859
     71 H37         1.3474  -11.7305   -4.3547 H         1 <0>         0.1180
     72 H38        -0.5526  -10.9430   -3.0008 H         1 <0>         0.1168
     73 H39        -1.8832   -9.0121   -3.7521 H         1 <0>         0.1162
     74 H40        -1.3132   -7.8681   -5.8567 H         1 <0>         0.1162
     75 H41         0.5920   -8.6504   -7.2063 H         1 <0>         0.1105
     76 H42         2.9895  -12.5334   -7.2183 H         1 <0>         0.3776
@<TRIPOS>BOND
     1    1    2 1
     2    1   37 1
     3    1   38 1
     4    1   39 1
     5    2    3 1
     6    2   40 1
     7    2   41 1
     8    3    4 1
     9    3   42 1
    10    3   43 1
    11    4    5 1
    12    4   44 1
    13    4   45 1
    14    5    6 1
    15    5   46 1
    16    5   47 1
    17    6    7 1
    18    6   48 1
    19    6   49 1
    20    7    8 1
    21    7   50 1
    22    7   51 1
    23    8    9 1
    24    8   52 1
    25    8   53 1
    26    9   10 1
    27    9   54 1
    28    9   55 1
    29   10   11 2
    30   10   12 am
    31   12   13 1
    32   12   56 1
    33   13   14 1
    34   13   15 1
    35   13   28 1
    36   15   16 1
    37   15   57 1
    38   15   58 1
    39   16   17 1
    40   16   59 1
    41   17   22 1
    42   17   18 1
    43   17   60 1
    44   18   19 2
    45   18   61 1
    46   19   20 1
    47   19   26 1
    48   20   21 1
    49   20   25 1
    50   20   62 1
    51   21   22 1
    52   21   24 1
    53   21   63 1
    54   22   23 1
    55   22   64 1
    56   23   65 1
    57   24   66 1
    58   25   67 1
    59   26   27 1
    60   26   68 1
    61   26   69 1
    62   27   70 1
    63   28   29 1
    64   28   30 1
    65   28   36 1
    66   30   35 ar
    67   30   31 ar
    68   31   32 ar
    69   31   71 1
    70   32   33 ar
    71   32   72 1
    72   33   34 ar
    73   33   73 1
    74   34   35 ar
    75   34   74 1
    76   35   75 1
    77   36   76 1
@<TRIPOS>MOLECULE
CHEMBL57496__22
   77    78     0     0     0
SMALL
USER_CHARGES

@<TRIPOS>ATOM
      1 C1         -0.0187    1.5258    0.0104 C.3       1 <0>        -0.1549
      2 C2          0.0021   -0.0041    0.0020 C.3       1 <0>        -0.1264
      3 C3         -1.4333   -0.5336    0.0129 C.3       1 <0>        -0.1211
      4 C4         -1.4126   -2.0635    0.0045 C.3       1 <0>        -0.1217
      5 C5         -2.8479   -2.5931    0.0153 C.3       1 <0>        -0.1201
      6 C6         -2.8272   -4.1229    0.0069 C.3       1 <0>        -0.1199
      7 C7         -4.2626   -4.6525    0.0178 C.3       1 <0>        -0.1199
      8 C8         -4.2418   -6.1823    0.0094 C.3       1 <0>        -0.1033
      9 C9         -5.6772   -6.7119    0.0202 C.3       1 <0>        -0.1395
     10 C10        -5.6568   -8.2187    0.0119 C.2       1 <0>         0.5155
     11 O1         -4.5984   -8.8108   -0.0014 O.2       1 <0>        -0.4925
     12 N1         -6.8147   -8.9084    0.0193 N.am      1 <0>        -0.7499
     13 C11        -6.7948  -10.3733    0.0112 C.3       1 <0>         0.0960
     14 H1         -5.9538  -10.7220   -0.5882 H         1 <0>         0.1154
     15 C12        -8.1009  -10.8977   -0.5888 C.3       1 <0>        -0.0190
     16 N2         -8.3005  -10.3073   -1.9190 N.4       1 <0>        -0.4989
     17 C13        -9.5545  -10.8109   -2.4951 C.3       1 <0>         0.0852
     18 C14       -10.7093  -10.3434   -1.6585 C.2       1 <0>        -0.1782
     19 C15       -11.8207   -9.8914   -2.1442 C.2       1 <0>        -0.0853
     20 C16       -12.1061   -9.7625   -3.6118 C.3       1 <0>         0.1095
     21 C17       -11.1176  -10.6085   -4.4173 C.3       1 <0>         0.0863
     22 C18        -9.6982  -10.2934   -3.9280 C.3       1 <0>         0.0974
     23 O2         -9.4839   -8.8808   -3.9523 O.3       1 <0>        -0.5483
     24 O3        -11.3978  -11.9954   -4.2171 O.3       1 <0>        -0.5517
     25 O4        -11.9832   -8.3927   -3.9998 O.3       1 <0>        -0.5391
     26 C19       -12.8950   -9.4686   -1.1756 C.3       1 <0>         0.0973
     27 O5        -12.4347   -9.6670    0.1626 O.3       1 <0>        -0.5741
     28 C20        -6.6485  -10.8892    1.4442 C.3       1 <0>         0.1479
     29 H2         -7.4895  -10.5406    2.0435 H         1 <0>         0.1160
     30 C21        -5.3620  -10.3726    2.0351 C.ar      1 <0>        -0.1179
     31 C22        -4.1629  -10.9855    1.7231 C.ar      1 <0>        -0.0861
     32 C23        -2.9829  -10.5117    2.2652 C.ar      1 <0>        -0.1050
     33 C24        -3.0019   -9.4247    3.1190 C.ar      1 <0>        -0.1040
     34 C25        -4.2009   -8.8112    3.4303 C.ar      1 <0>        -0.1142
     35 C26        -5.3805   -9.2824    2.8849 C.ar      1 <0>        -0.1080
     36 O6         -6.6291  -12.3181    1.4363 O.3       1 <0>        -0.5459
     37 H3          1.0039    1.9031    0.0027 H         1 <0>         0.0548
     38 H4         -0.5459    1.8868   -0.8726 H         1 <0>         0.0534
     39 H5         -0.5289    1.8773    0.9072 H         1 <0>         0.0536
     40 H6          0.5123   -0.3556   -0.8948 H         1 <0>         0.0604
     41 H7          0.5293   -0.3651    0.8851 H         1 <0>         0.0607
     42 H8         -1.9435   -0.1821    0.9097 H         1 <0>         0.0608
     43 H9         -1.9605   -0.1726   -0.8702 H         1 <0>         0.0605
     44 H10        -0.9024   -2.4150   -0.8923 H         1 <0>         0.0608
     45 H11        -0.8854   -2.4246    0.8875 H         1 <0>         0.0612
     46 H12        -3.3581   -2.2415    0.9121 H         1 <0>         0.0610
     47 H13        -3.3751   -2.2320   -0.8677 H         1 <0>         0.0604
     48 H14        -2.3170   -4.4744   -0.8899 H         1 <0>         0.0617
     49 H15        -2.3000   -4.4840    0.8900 H         1 <0>         0.0624
     50 H16        -4.7728   -4.3010    0.9146 H         1 <0>         0.0626
     51 H17        -4.7898   -4.2914   -0.8653 H         1 <0>         0.0615
     52 H18        -3.7316   -6.5338   -0.8874 H         1 <0>         0.0689
     53 H19        -3.7146   -6.5434    0.8924 H         1 <0>         0.0719
     54 H20        -6.1874   -6.3604    0.9170 H         1 <0>         0.0964
     55 H21        -6.2044   -6.3508   -0.8628 H         1 <0>         0.0935
     56 H22        -7.6612   -8.4349    0.0299 H         1 <0>         0.4017
     57 H23        -8.0503  -11.9830   -0.6768 H         1 <0>         0.1541
     58 H24        -8.9339  -10.6242    0.0588 H         1 <0>         0.1425
     59 H25        -8.3473   -9.3027   -1.8375 H         1 <0>         0.4312
     60 H26        -9.5357  -11.9007   -2.5047 H         1 <0>         0.1629
     61 H27       -10.6068  -10.3873   -0.5842 H         1 <0>         0.1481
     62 H28       -13.1216  -10.1034   -3.8137 H         1 <0>         0.0792
     63 H29       -11.2031  -10.3634   -5.4759 H         1 <0>         0.0945
     64 H30        -8.9707  -10.7886   -4.5711 H         1 <0>         0.0951
     65 H31        -9.5603   -8.4865   -4.8319 H         1 <0>         0.4106
     66 H32       -12.2866  -12.2605   -4.4904 H         1 <0>         0.4002
     67 H33       -12.5883   -7.7971   -3.5371 H         1 <0>         0.3897
     68 H34       -13.1268   -8.4144   -1.3276 H         1 <0>         0.0704
     69 H35       -13.7913  -10.0656   -1.3439 H         1 <0>         0.0721
     70 H36       -13.0766   -9.4154    0.8407 H         1 <0>         0.3979
     71 H37        -4.1480  -11.8347    1.0560 H         1 <0>         0.1116
     72 H38        -2.0461  -10.9909    2.0219 H         1 <0>         0.1220
     73 H39        -2.0801   -9.0549    3.5431 H         1 <0>         0.1226
     74 H40        -4.2159   -7.9622    4.0977 H         1 <0>         0.1215
     75 H41        -6.3168   -8.8009    3.1252 H         1 <0>         0.1142
     76 H42        -5.9051  -12.6988    0.9206 H         1 <0>         0.3813
     77 H43        -7.5294  -10.5605   -2.5185 H         1 <0>         0.4286
@<TRIPOS>BOND
     1    1    2 1
     2    1   37 1
     3    1   38 1
     4    1   39 1
     5    2    3 1
     6    2   40 1
     7    2   41 1
     8    3    4 1
     9    3   42 1
    10    3   43 1
    11    4    5 1
    12    4   44 1
    13    4   45 1
    14    5    6 1
    15    5   46 1
    16    5   47 1
    17    6    7 1
    18    6   48 1
    19    6   49 1
    20    7    8 1
    21    7   50 1
    22    7   51 1
    23    8    9 1
    24    8   52 1
    25    8   53 1
    26    9   10 1
    27    9   54 1
    28    9   55 1
    29   10   11 2
    30   10   12 am
    31   12   13 1
    32   12   56 1
    33   13   14 1
    34   13   15 1
    35   13   28 1
    36   15   16 1
    37   15   57 1
    38   15   58 1
    39   16   17 1
    40   16   59 1
    41   16   77 1
    42   17   22 1
    43   17   18 1
    44   17   60 1
    45   18   19 2
    46   18   61 1
    47   19   20 1
    48   19   26 1
    49   20   21 1
    50   20   25 1
    51   20   62 1
    52   21   22 1
    53   21   24 1
    54   21   63 1
    55   22   23 1
    56   22   64 1
    57   23   65 1
    58   24   66 1
    59   25   67 1
    60   26   27 1
    61   26   68 1
    62   26   69 1
    63   27   70 1
    64   28   29 1
    65   28   30 1
    66   28   36 1
    67   30   35 ar
    68   30   31 ar
    69   31   32 ar
    70   31   71 1
    71   32   33 ar
    72   32   72 1
    73   33   34 ar
    74   33   73 1
    75   34   35 ar
    76   34   74 1
    77   35   75 1
    78   36   76 1
@<TRIPOS>MOLECULE
CHEMBL57496__23
   76    77     0     0     0
SMALL
USER_CHARGES

@<TRIPOS>ATOM
      1 C1         -0.0187    1.5258    0.0104 C.3       1 <0>        -0.1541
      2 C2          0.0021   -0.0041    0.0020 C.3       1 <0>        -0.1263
      3 C3          0.7182   -0.4975   -1.2568 C.3       1 <0>        -0.1209
      4 C4          0.7390   -2.0273   -1.2652 C.3       1 <0>        -0.1215
      5 C5          1.4551   -2.5207   -2.5240 C.3       1 <0>        -0.1197
      6 C6          1.4758   -4.0506   -2.5324 C.3       1 <0>        -0.1195
      7 C7          2.1920   -4.5440   -3.7912 C.3       1 <0>        -0.1194
      8 C8          2.2127   -6.0738   -3.7996 C.3       1 <0>        -0.1007
      9 C9          2.9289   -6.5673   -5.0584 C.3       1 <0>        -0.1395
     10 C10         2.9493   -8.0741   -5.0667 C.2       1 <0>         0.5148
     11 O1          2.4411   -8.6925   -4.1555 O.2       1 <0>        -0.5124
     12 N1          3.5323   -8.7345   -6.0867 N.am      1 <0>        -0.7262
     13 C11         3.5522  -10.1994   -6.0948 C.3       1 <0>         0.1257
     14 H1          3.6564  -10.5669   -5.0739 H         1 <0>         0.1057
     15 C12         4.7327  -10.6888   -6.9361 C.3       1 <0>         0.0416
     16 N2          5.9753  -10.0889   -6.4321 N.3       1 <0>        -0.6624
     17 C13         7.1327  -10.5372   -7.2177 C.3       1 <0>         0.1300
     18 C14         7.2684   -9.6762   -8.4393 C.2       1 <0>        -0.1269
     19 C15         8.3950   -9.2174   -8.8817 C.2       1 <0>        -0.1633
     20 C16         9.7219   -9.4743   -8.2294 C.3       1 <0>         0.1273
     21 C17         9.6151  -10.6585   -7.2660 C.3       1 <0>         0.0776
     22 C18         8.3965  -10.4388   -6.3604 C.3       1 <0>         0.1318
     23 O2          8.4704   -9.1438   -5.7607 O.3       1 <0>        -0.5302
     24 O3          9.4499  -11.8683   -8.0083 O.3       1 <0>        -0.5474
     25 O4         10.1275   -8.3105   -7.5062 O.3       1 <0>        -0.5426
     26 C19         8.3729   -8.3730  -10.1297 C.3       1 <0>         0.1096
     27 O5          7.0278   -8.2460  -10.5951 O.3       1 <0>        -0.5696
     28 C20         2.2461  -10.7238   -6.6948 C.3       1 <0>         0.1384
     29 H2          2.1419  -10.3563   -7.7156 H         1 <0>         0.0613
     30 C21         1.0834  -10.2418   -5.8661 C.ar      1 <0>        -0.0679
     31 C22         0.7639  -10.8834   -4.6841 C.ar      1 <0>        -0.0644
     32 C23        -0.3026  -10.4413   -3.9240 C.ar      1 <0>        -0.1151
     33 C24        -1.0495   -9.3571   -4.3456 C.ar      1 <0>        -0.1131
     34 C25        -0.7295   -8.7149   -5.5271 C.ar      1 <0>        -0.1218
     35 C26         0.3397   -9.1544   -6.2851 C.ar      1 <0>        -0.1123
     36 O6          2.2655  -12.1527   -6.7026 O.3       1 <0>        -0.5530
     37 H3          1.0039    1.9031    0.0027 H         1 <0>         0.0532
     38 H4         -0.5459    1.8868   -0.8726 H         1 <0>         0.0531
     39 H5         -0.5289    1.8773    0.9072 H         1 <0>         0.0533
     40 H6          0.5293   -0.3651    0.8851 H         1 <0>         0.0604
     41 H7         -1.0205   -0.3814    0.0098 H         1 <0>         0.0603
     42 H8          0.1910   -0.1364   -2.1398 H         1 <0>         0.0602
     43 H9          1.7408   -0.1202   -1.2645 H         1 <0>         0.0603
     44 H10         1.2661   -2.3884   -0.3821 H         1 <0>         0.0608
     45 H11        -0.2836   -2.4046   -1.2575 H         1 <0>         0.0607
     46 H12         0.9279   -2.1597   -3.4071 H         1 <0>         0.0599
     47 H13         2.4777   -2.1435   -2.5317 H         1 <0>         0.0601
     48 H14         2.0030   -4.4117   -1.6494 H         1 <0>         0.0616
     49 H15         0.4533   -4.4279   -2.5247 H         1 <0>         0.0614
     50 H16         1.6648   -4.1829   -4.6743 H         1 <0>         0.0600
     51 H17         3.2146   -4.1667   -3.7990 H         1 <0>         0.0605
     52 H18         2.7399   -6.4349   -2.9166 H         1 <0>         0.0681
     53 H19         1.1901   -6.4511   -3.7919 H         1 <0>         0.0696
     54 H20         2.4017   -6.2062   -5.9415 H         1 <0>         0.0877
     55 H21         3.9515   -6.1900   -5.0662 H         1 <0>         0.0896
     56 H22         3.9388   -8.2400   -6.8155 H         1 <0>         0.3953
     57 H23         4.8005  -11.7747   -6.8700 H         1 <0>         0.0892
     58 H24         4.5838  -10.3967   -7.9756 H         1 <0>         0.0379
     59 H25         5.9128   -9.0819   -6.4227 H         1 <0>         0.3516
     60 H26         6.9830  -11.5729   -7.5229 H         1 <0>         0.1052
     61 H27         6.3702   -9.4240   -8.9833 H         1 <0>         0.1203
     62 H28        10.4640   -9.6979   -8.9958 H         1 <0>         0.0581
     63 H29        10.5176  -10.7185   -6.6577 H         1 <0>         0.0729
     64 H30         8.3737  -11.2043   -5.5848 H         1 <0>         0.0701
     65 H31         9.2491   -9.0127   -5.2025 H         1 <0>         0.3778
     66 H32        10.1784  -12.0604   -8.6145 H         1 <0>         0.3827
     67 H33        10.2266   -7.5208   -8.0555 H         1 <0>         0.3784
     68 H34         8.7751   -7.3847   -9.9069 H         1 <0>         0.0535
     69 H35         8.9808   -8.8473  -10.9001 H         1 <0>         0.0546
     70 H36         6.9379   -7.7138  -11.3975 H         1 <0>         0.3842
     71 H37         1.3474  -11.7305   -4.3547 H         1 <0>         0.1178
     72 H38        -0.5526  -10.9430   -3.0008 H         1 <0>         0.1165
     73 H39        -1.8832   -9.0121   -3.7521 H         1 <0>         0.1159
     74 H40        -1.3132   -7.8681   -5.8567 H         1 <0>         0.1159
     75 H41         0.5920   -8.6504   -7.2063 H         1 <0>         0.1104
     76 H42         2.9895  -12.5334   -7.2183 H         1 <0>         0.3774
@<TRIPOS>BOND
     1    1    2 1
     2    1   37 1
     3    1   38 1
     4    1   39 1
     5    2    3 1
     6    2   40 1
     7    2   41 1
     8    3    4 1
     9    3   42 1
    10    3   43 1
    11    4    5 1
    12    4   44 1
    13    4   45 1
    14    5    6 1
    15    5   46 1
    16    5   47 1
    17    6    7 1
    18    6   48 1
    19    6   49 1
    20    7    8 1
    21    7   50 1
    22    7   51 1
    23    8    9 1
    24    8   52 1
    25    8   53 1
    26    9   10 1
    27    9   54 1
    28    9   55 1
    29   10   11 2
    30   10   12 am
    31   12   13 1
    32   12   56 1
    33   13   14 1
    34   13   15 1
    35   13   28 1
    36   15   16 1
    37   15   57 1
    38   15   58 1
    39   16   17 1
    40   16   59 1
    41   17   22 1
    42   17   18 1
    43   17   60 1
    44   18   19 2
    45   18   61 1
    46   19   20 1
    47   19   26 1
    48   20   21 1
    49   20   25 1
    50   20   62 1
    51   21   22 1
    52   21   24 1
    53   21   63 1
    54   22   23 1
    55   22   64 1
    56   23   65 1
    57   24   66 1
    58   25   67 1
    59   26   27 1
    60   26   68 1
    61   26   69 1
    62   27   70 1
    63   28   29 1
    64   28   30 1
    65   28   36 1
    66   30   35 ar
    67   30   31 ar
    68   31   32 ar
    69   31   71 1
    70   32   33 ar
    71   32   72 1
    72   33   34 ar
    73   33   73 1
    74   34   35 ar
    75   34   74 1
    76   35   75 1
    77   36   76 1
@<TRIPOS>MOLECULE
CHEMBL57496__24
   77    78     0     0     0
SMALL
USER_CHARGES

@<TRIPOS>ATOM
      1 C1         -0.0187    1.5258    0.0104 C.3       1 <0>        -0.1550
      2 C2          0.0021   -0.0041    0.0020 C.3       1 <0>        -0.1264
      3 C3         -1.4333   -0.5336    0.0129 C.3       1 <0>        -0.1210
      4 C4         -1.4126   -2.0635    0.0045 C.3       1 <0>        -0.1218
      5 C5         -2.8479   -2.5931    0.0153 C.3       1 <0>        -0.1200
      6 C6         -2.8272   -4.1229    0.0069 C.3       1 <0>        -0.1201
      7 C7         -4.2626   -4.6525    0.0178 C.3       1 <0>        -0.1198
      8 C8         -4.2418   -6.1823    0.0094 C.3       1 <0>        -0.1040
      9 C9         -5.6772   -6.7119    0.0202 C.3       1 <0>        -0.1392
     10 C10        -5.6568   -8.2187    0.0119 C.2       1 <0>         0.5141
     11 O1         -4.5984   -8.8108   -0.0014 O.2       1 <0>        -0.4897
     12 N1         -6.8147   -8.9084    0.0193 N.am      1 <0>        -0.7514
     13 C11        -6.7948  -10.3733    0.0112 C.3       1 <0>         0.0950
     14 H1         -5.9538  -10.7220   -0.5882 H         1 <0>         0.1170
     15 C12        -8.1009  -10.8977   -0.5888 C.3       1 <0>        -0.0179
     16 N2         -8.3005  -10.3073   -1.9190 N.4       1 <0>        -0.4998
     17 C13        -9.5545  -10.8109   -2.4951 C.3       1 <0>         0.0802
     18 C14       -10.7093  -10.3434   -1.6585 C.2       1 <0>        -0.2038
     19 C15       -11.8207   -9.8914   -2.1442 C.2       1 <0>        -0.0810
     20 C16       -12.1061   -9.7625   -3.6118 C.3       1 <0>         0.0985
     21 C17       -11.1176  -10.6085   -4.4173 C.3       1 <0>         0.0946
     22 C18        -9.6982  -10.2934   -3.9280 C.3       1 <0>         0.0986
     23 O2         -8.7444  -10.9426   -4.7711 O.3       1 <0>        -0.5569
     24 O3        -11.2297  -10.2871   -5.8051 O.3       1 <0>        -0.5541
     25 O4        -13.4374  -10.2094   -3.8765 O.3       1 <0>        -0.5487
     26 C19       -12.8950   -9.4686   -1.1756 C.3       1 <0>         0.0929
     27 O5        -12.4347   -9.6670    0.1626 O.3       1 <0>        -0.5732
     28 C20        -6.6485  -10.8892    1.4442 C.3       1 <0>         0.1484
     29 H2         -7.4895  -10.5406    2.0435 H         1 <0>         0.1164
     30 C21        -5.3620  -10.3726    2.0351 C.ar      1 <0>        -0.1189
     31 C22        -4.1629  -10.9855    1.7231 C.ar      1 <0>        -0.0860
     32 C23        -2.9829  -10.5117    2.2652 C.ar      1 <0>        -0.1047
     33 C24        -3.0019   -9.4247    3.1190 C.ar      1 <0>        -0.1037
     34 C25        -4.2009   -8.8112    3.4303 C.ar      1 <0>        -0.1143
     35 C26        -5.3805   -9.2824    2.8849 C.ar      1 <0>        -0.1081
     36 O6         -6.6291  -12.3181    1.4363 O.3       1 <0>        -0.5459
     37 H3          1.0039    1.9031    0.0027 H         1 <0>         0.0549
     38 H4         -0.5459    1.8868   -0.8726 H         1 <0>         0.0534
     39 H5         -0.5289    1.8773    0.9072 H         1 <0>         0.0536
     40 H6          0.5123   -0.3556   -0.8948 H         1 <0>         0.0605
     41 H7          0.5293   -0.3651    0.8851 H         1 <0>         0.0607
     42 H8         -1.9435   -0.1821    0.9097 H         1 <0>         0.0608
     43 H9         -1.9605   -0.1726   -0.8702 H         1 <0>         0.0604
     44 H10        -0.9024   -2.4150   -0.8923 H         1 <0>         0.0609
     45 H11        -0.8854   -2.4246    0.8875 H         1 <0>         0.0613
     46 H12        -3.3581   -2.2415    0.9121 H         1 <0>         0.0610
     47 H13        -3.3751   -2.2320   -0.8677 H         1 <0>         0.0603
     48 H14        -2.3170   -4.4744   -0.8899 H         1 <0>         0.0619
     49 H15        -2.3000   -4.4840    0.8900 H         1 <0>         0.0627
     50 H16        -4.7728   -4.3010    0.9146 H         1 <0>         0.0627
     51 H17        -4.7898   -4.2914   -0.8653 H         1 <0>         0.0612
     52 H18        -3.7316   -6.5338   -0.8874 H         1 <0>         0.0693
     53 H19        -3.7146   -6.5434    0.8924 H         1 <0>         0.0725
     54 H20        -6.1874   -6.3604    0.9170 H         1 <0>         0.0970
     55 H21        -6.2044   -6.3508   -0.8628 H         1 <0>         0.0925
     56 H22        -7.6612   -8.4349    0.0299 H         1 <0>         0.4007
     57 H23        -8.0503  -11.9830   -0.6768 H         1 <0>         0.1564
     58 H24        -8.9339  -10.6242    0.0588 H         1 <0>         0.1445
     59 H25        -8.3473   -9.3027   -1.8375 H         1 <0>         0.4221
     60 H26        -9.5357  -11.9007   -2.5047 H         1 <0>         0.1604
     61 H27       -10.6068  -10.3873   -0.5842 H         1 <0>         0.1598
     62 H28       -12.0124   -8.7177   -3.9078 H         1 <0>         0.0939
     63 H29       -11.3313  -11.6664   -4.2646 H         1 <0>         0.0886
     64 H30        -9.5347   -9.2159   -3.9465 H         1 <0>         0.0894
     65 H31        -8.7804  -10.6608   -5.6954 H         1 <0>         0.4167
     66 H32       -12.1083  -10.4472   -6.1762 H         1 <0>         0.4075
     67 H33       -14.1202   -9.7109   -3.4071 H         1 <0>         0.3929
     68 H34       -13.1268   -8.4144   -1.3276 H         1 <0>         0.0766
     69 H35       -13.7913  -10.0656   -1.3439 H         1 <0>         0.0795
     70 H36       -13.0766   -9.4154    0.8407 H         1 <0>         0.4006
     71 H37        -4.1480  -11.8347    1.0560 H         1 <0>         0.1119
     72 H38        -2.0461  -10.9909    2.0219 H         1 <0>         0.1223
     73 H39        -2.0801   -9.0549    3.5431 H         1 <0>         0.1228
     74 H40        -4.2159   -7.9622    4.0977 H         1 <0>         0.1216
     75 H41        -6.3168   -8.8009    3.1252 H         1 <0>         0.1142
     76 H42        -5.9051  -12.6988    0.9206 H         1 <0>         0.3820
     77 H43        -7.5294  -10.5605   -2.5185 H         1 <0>         0.4380
@<TRIPOS>BOND
     1    1    2 1
     2    1   37 1
     3    1   38 1
     4    1   39 1
     5    2    3 1
     6    2   40 1
     7    2   41 1
     8    3    4 1
     9    3   42 1
    10    3   43 1
    11    4    5 1
    12    4   44 1
    13    4   45 1
    14    5    6 1
    15    5   46 1
    16    5   47 1
    17    6    7 1
    18    6   48 1
    19    6   49 1
    20    7    8 1
    21    7   50 1
    22    7   51 1
    23    8    9 1
    24    8   52 1
    25    8   53 1
    26    9   10 1
    27    9   54 1
    28    9   55 1
    29   10   11 2
    30   10   12 am
    31   12   13 1
    32   12   56 1
    33   13   14 1
    34   13   15 1
    35   13   28 1
    36   15   16 1
    37   15   57 1
    38   15   58 1
    39   16   17 1
    40   16   59 1
    41   16   77 1
    42   17   22 1
    43   17   18 1
    44   17   60 1
    45   18   19 2
    46   18   61 1
    47   19   20 1
    48   19   26 1
    49   20   21 1
    50   20   25 1
    51   20   62 1
    52   21   22 1
    53   21   24 1
    54   21   63 1
    55   22   23 1
    56   22   64 1
    57   23   65 1
    58   24   66 1
    59   25   67 1
    60   26   27 1
    61   26   68 1
    62   26   69 1
    63   27   70 1
    64   28   29 1
    65   28   30 1
    66   28   36 1
    67   30   35 ar
    68   30   31 ar
    69   31   32 ar
    70   31   71 1
    71   32   33 ar
    72   32   72 1
    73   33   34 ar
    74   33   73 1
    75   34   35 ar
    76   34   74 1
    77   35   75 1
    78   36   76 1
@<TRIPOS>MOLECULE
CHEMBL57496__25
   76    77     0     0     0
SMALL
USER_CHARGES

@<TRIPOS>ATOM
      1 C1         -0.0187    1.5258    0.0104 C.3       1 <0>        -0.1541
      2 C2          0.0021   -0.0041    0.0020 C.3       1 <0>        -0.1264
      3 C3          0.7182   -0.4975   -1.2568 C.3       1 <0>        -0.1208
      4 C4          0.7390   -2.0273   -1.2652 C.3       1 <0>        -0.1216
      5 C5          1.4551   -2.5207   -2.5240 C.3       1 <0>        -0.1197
      6 C6          1.4758   -4.0506   -2.5324 C.3       1 <0>        -0.1197
      7 C7          2.1920   -4.5440   -3.7912 C.3       1 <0>        -0.1192
      8 C8          2.2127   -6.0738   -3.7996 C.3       1 <0>        -0.1014
      9 C9          2.9289   -6.5673   -5.0584 C.3       1 <0>        -0.1392
     10 C10         2.9493   -8.0741   -5.0667 C.2       1 <0>         0.5135
     11 O1          2.4411   -8.6925   -4.1555 O.2       1 <0>        -0.5099
     12 N1          3.5323   -8.7345   -6.0867 N.am      1 <0>        -0.7278
     13 C11         3.5522  -10.1994   -6.0948 C.3       1 <0>         0.1246
     14 H1          3.6564  -10.5669   -5.0739 H         1 <0>         0.1075
     15 C12         4.7327  -10.6888   -6.9361 C.3       1 <0>         0.0457
     16 N2          5.9753  -10.0889   -6.4321 N.3       1 <0>        -0.6602
     17 C13         7.1327  -10.5372   -7.2177 C.3       1 <0>         0.1234
     18 C14         7.2684   -9.6762   -8.4393 C.2       1 <0>        -0.1528
     19 C15         8.3950   -9.2174   -8.8817 C.2       1 <0>        -0.1579
     20 C16         9.7219   -9.4743   -8.2294 C.3       1 <0>         0.1154
     21 C17         9.6151  -10.6585   -7.2660 C.3       1 <0>         0.0853
     22 C18         8.3965  -10.4388   -6.3604 C.3       1 <0>         0.1364
     23 O2          8.3666  -11.4424   -5.3436 O.3       1 <0>        -0.5421
     24 O3         10.7983  -10.7372   -6.4686 O.3       1 <0>        -0.5596
     25 O4         10.6948   -9.7674   -9.2341 O.3       1 <0>        -0.5588
     26 C19         8.3729   -8.3730  -10.1297 C.3       1 <0>         0.1058
     27 O5          7.0278   -8.2460  -10.5951 O.3       1 <0>        -0.5690
     28 C20         2.2461  -10.7238   -6.6948 C.3       1 <0>         0.1389
     29 H2          2.1419  -10.3563   -7.7156 H         1 <0>         0.0615
     30 C21         1.0834  -10.2418   -5.8661 C.ar      1 <0>        -0.0687
     31 C22         0.7639  -10.8834   -4.6841 C.ar      1 <0>        -0.0642
     32 C23        -0.3026  -10.4413   -3.9240 C.ar      1 <0>        -0.1149
     33 C24        -1.0495   -9.3571   -4.3456 C.ar      1 <0>        -0.1129
     34 C25        -0.7295   -8.7149   -5.5271 C.ar      1 <0>        -0.1220
     35 C26         0.3397   -9.1544   -6.2851 C.ar      1 <0>        -0.1124
     36 O6          2.2655  -12.1527   -6.7026 O.3       1 <0>        -0.5524
     37 H3          1.0039    1.9031    0.0027 H         1 <0>         0.0531
     38 H4         -0.5459    1.8868   -0.8726 H         1 <0>         0.0531
     39 H5         -0.5289    1.8773    0.9072 H         1 <0>         0.0534
     40 H6          0.5293   -0.3651    0.8851 H         1 <0>         0.0604
     41 H7         -1.0205   -0.3814    0.0098 H         1 <0>         0.0604
     42 H8          0.1910   -0.1364   -2.1398 H         1 <0>         0.0602
     43 H9          1.7408   -0.1202   -1.2645 H         1 <0>         0.0602
     44 H10         1.2661   -2.3884   -0.3821 H         1 <0>         0.0609
     45 H11        -0.2836   -2.4046   -1.2575 H         1 <0>         0.0608
     46 H12         0.9279   -2.1597   -3.4071 H         1 <0>         0.0599
     47 H13         2.4777   -2.1435   -2.5317 H         1 <0>         0.0600
     48 H14         2.0030   -4.4117   -1.6494 H         1 <0>         0.0617
     49 H15         0.4533   -4.4279   -2.5247 H         1 <0>         0.0617
     50 H16         1.6648   -4.1829   -4.6743 H         1 <0>         0.0602
     51 H17         3.2146   -4.1667   -3.7990 H         1 <0>         0.0601
     52 H18         2.7399   -6.4349   -2.9166 H         1 <0>         0.0683
     53 H19         1.1901   -6.4511   -3.7919 H         1 <0>         0.0702
     54 H20         2.4017   -6.2062   -5.9415 H         1 <0>         0.0884
     55 H21         3.9515   -6.1900   -5.0662 H         1 <0>         0.0886
     56 H22         3.9388   -8.2400   -6.8155 H         1 <0>         0.3947
     57 H23         4.8005  -11.7747   -6.8700 H         1 <0>         0.0924
     58 H24         4.5838  -10.3967   -7.9756 H         1 <0>         0.0402
     59 H25         5.9128   -9.0819   -6.4227 H         1 <0>         0.3434
     60 H26         6.9830  -11.5729   -7.5229 H         1 <0>         0.1022
     61 H27         6.3702   -9.4240   -8.9833 H         1 <0>         0.1333
     62 H28        10.0313   -8.5866   -7.6778 H         1 <0>         0.0778
     63 H29         9.4891  -11.5813   -7.8322 H         1 <0>         0.0750
     64 H30         8.4529   -9.4510   -5.9030 H         1 <0>         0.0651
     65 H31         9.1396  -11.4368   -4.7626 H         1 <0>         0.3858
     66 H32        11.6098  -10.8597   -6.9800 H         1 <0>         0.3916
     67 H33        10.8242   -9.0557   -9.8758 H         1 <0>         0.3822
     68 H34         8.7751   -7.3847   -9.9069 H         1 <0>         0.0593
     69 H35         8.9808   -8.8473  -10.9001 H         1 <0>         0.0629
     70 H36         6.9379   -7.7138  -11.3975 H         1 <0>         0.3872
     71 H37         1.3474  -11.7305   -4.3547 H         1 <0>         0.1182
     72 H38        -0.5526  -10.9430   -3.0008 H         1 <0>         0.1168
     73 H39        -1.8832   -9.0121   -3.7521 H         1 <0>         0.1161
     74 H40        -1.3132   -7.8681   -5.8567 H         1 <0>         0.1160
     75 H41         0.5920   -8.6504   -7.2063 H         1 <0>         0.1104
     76 H42         2.9895  -12.5334   -7.2183 H         1 <0>         0.3776
@<TRIPOS>BOND
     1    1    2 1
     2    1   37 1
     3    1   38 1
     4    1   39 1
     5    2    3 1
     6    2   40 1
     7    2   41 1
     8    3    4 1
     9    3   42 1
    10    3   43 1
    11    4    5 1
    12    4   44 1
    13    4   45 1
    14    5    6 1
    15    5   46 1
    16    5   47 1
    17    6    7 1
    18    6   48 1
    19    6   49 1
    20    7    8 1
    21    7   50 1
    22    7   51 1
    23    8    9 1
    24    8   52 1
    25    8   53 1
    26    9   10 1
    27    9   54 1
    28    9   55 1
    29   10   11 2
    30   10   12 am
    31   12   13 1
    32   12   56 1
    33   13   14 1
    34   13   15 1
    35   13   28 1
    36   15   16 1
    37   15   57 1
    38   15   58 1
    39   16   17 1
    40   16   59 1
    41   17   22 1
    42   17   18 1
    43   17   60 1
    44   18   19 2
    45   18   61 1
    46   19   20 1
    47   19   26 1
    48   20   21 1
    49   20   25 1
    50   20   62 1
    51   21   22 1
    52   21   24 1
    53   21   63 1
    54   22   23 1
    55   22   64 1
    56   23   65 1
    57   24   66 1
    58   25   67 1
    59   26   27 1
    60   26   68 1
    61   26   69 1
    62   27   70 1
    63   28   29 1
    64   28   30 1
    65   28   36 1
    66   30   35 ar
    67   30   31 ar
    68   31   32 ar
    69   31   71 1
    70   32   33 ar
    71   32   72 1
    72   33   34 ar
    73   33   73 1
    74   34   35 ar
    75   34   74 1
    76   35   75 1
    77   36   76 1
@<TRIPOS>MOLECULE
CHEMBL57496__26
   77    78     0     0     0
SMALL
USER_CHARGES

@<TRIPOS>ATOM
      1 C1         -0.0187    1.5258    0.0104 C.3       1 <0>        -0.1550
      2 C2          0.0021   -0.0041    0.0020 C.3       1 <0>        -0.1264
      3 C3         -1.4333   -0.5336    0.0129 C.3       1 <0>        -0.1211
      4 C4         -1.4126   -2.0635    0.0045 C.3       1 <0>        -0.1217
      5 C5         -2.8479   -2.5931    0.0153 C.3       1 <0>        -0.1201
      6 C6         -2.8272   -4.1229    0.0069 C.3       1 <0>        -0.1200
      7 C7         -4.2626   -4.6525    0.0178 C.3       1 <0>        -0.1200
      8 C8         -4.2418   -6.1823    0.0094 C.3       1 <0>        -0.1034
      9 C9         -5.6772   -6.7119    0.0202 C.3       1 <0>        -0.1395
     10 C10        -5.6568   -8.2187    0.0119 C.2       1 <0>         0.5154
     11 O1         -4.5984   -8.8108   -0.0014 O.2       1 <0>        -0.4918
     12 N1         -6.8147   -8.9084    0.0193 N.am      1 <0>        -0.7504
     13 C11        -6.7948  -10.3733    0.0112 C.3       1 <0>         0.0958
     14 H1         -5.9538  -10.7220   -0.5882 H         1 <0>         0.1160
     15 C12        -8.1009  -10.8977   -0.5888 C.3       1 <0>        -0.0195
     16 N2         -8.3005  -10.3073   -1.9190 N.4       1 <0>        -0.4970
     17 C13        -9.5545  -10.8109   -2.4951 C.3       1 <0>         0.0825
     18 C14       -10.7093  -10.3434   -1.6585 C.2       1 <0>        -0.2039
     19 C15       -11.8207   -9.8914   -2.1442 C.2       1 <0>        -0.0731
     20 C16       -12.1057   -9.7616   -3.6118 C.3       1 <0>         0.1041
     21 C17       -11.1174  -10.6077   -4.4175 C.3       1 <0>         0.0924
     22 C18        -9.6982  -10.2934   -3.9280 C.3       1 <0>         0.0957
     23 O2         -9.4839   -8.8808   -3.9523 O.3       1 <0>        -0.5671
     24 O3        -11.2292  -10.2855   -5.8052 O.3       1 <0>        -0.5546
     25 O4        -13.4372  -10.2077   -3.8770 O.3       1 <0>        -0.5536
     26 C19       -12.8950   -9.4686   -1.1756 C.3       1 <0>         0.0931
     27 O5        -12.4347   -9.6670    0.1626 O.3       1 <0>        -0.5731
     28 C20        -6.6485  -10.8892    1.4442 C.3       1 <0>         0.1480
     29 H2         -7.4895  -10.5406    2.0435 H         1 <0>         0.1163
     30 C21        -5.3620  -10.3726    2.0351 C.ar      1 <0>        -0.1185
     31 C22        -4.1629  -10.9855    1.7231 C.ar      1 <0>        -0.0861
     32 C23        -2.9829  -10.5117    2.2652 C.ar      1 <0>        -0.1049
     33 C24        -3.0019   -9.4247    3.1190 C.ar      1 <0>        -0.1037
     34 C25        -4.2009   -8.8112    3.4303 C.ar      1 <0>        -0.1141
     35 C26        -5.3805   -9.2824    2.8849 C.ar      1 <0>        -0.1079
     36 O6         -6.6291  -12.3181    1.4363 O.3       1 <0>        -0.5460
     37 H3          1.0039    1.9031    0.0027 H         1 <0>         0.0548
     38 H4         -0.5459    1.8868   -0.8726 H         1 <0>         0.0535
     39 H5         -0.5289    1.8773    0.9072 H         1 <0>         0.0537
     40 H6          0.5123   -0.3556   -0.8948 H         1 <0>         0.0604
     41 H7          0.5293   -0.3651    0.8851 H         1 <0>         0.0607
     42 H8         -1.9435   -0.1821    0.9097 H         1 <0>         0.0608
     43 H9         -1.9605   -0.1726   -0.8702 H         1 <0>         0.0605
     44 H10        -0.9024   -2.4150   -0.8923 H         1 <0>         0.0609
     45 H11        -0.8854   -2.4246    0.8875 H         1 <0>         0.0612
     46 H12        -3.3581   -2.2415    0.9121 H         1 <0>         0.0610
     47 H13        -3.3751   -2.2320   -0.8677 H         1 <0>         0.0604
     48 H14        -2.3170   -4.4744   -0.8899 H         1 <0>         0.0618
     49 H15        -2.3000   -4.4840    0.8900 H         1 <0>         0.0625
     50 H16        -4.7728   -4.3010    0.9146 H         1 <0>         0.0626
     51 H17        -4.7898   -4.2914   -0.8653 H         1 <0>         0.0615
     52 H18        -3.7316   -6.5338   -0.8874 H         1 <0>         0.0690
     53 H19        -3.7146   -6.5434    0.8924 H         1 <0>         0.0721
     54 H20        -6.1874   -6.3604    0.9170 H         1 <0>         0.0966
     55 H21        -6.2044   -6.3508   -0.8628 H         1 <0>         0.0934
     56 H22        -7.6612   -8.4349    0.0299 H         1 <0>         0.4018
     57 H23        -8.0503  -11.9830   -0.6768 H         1 <0>         0.1552
     58 H24        -8.9339  -10.6242    0.0588 H         1 <0>         0.1442
     59 H25        -8.3473   -9.3027   -1.8375 H         1 <0>         0.4328
     60 H26        -9.5357  -11.9007   -2.5047 H         1 <0>         0.1614
     61 H27       -10.6068  -10.3873   -0.5842 H         1 <0>         0.1534
     62 H28       -12.0114   -8.7167   -3.9072 H         1 <0>         0.0957
     63 H29       -11.3317  -11.6655   -4.2654 H         1 <0>         0.0876
     64 H30        -8.9707  -10.7886   -4.5711 H         1 <0>         0.1040
     65 H31        -9.5603   -8.4865   -4.8319 H         1 <0>         0.4160
     66 H32       -12.1077  -10.4449   -6.1765 H         1 <0>         0.4063
     67 H33       -14.1199   -9.7091   -3.4075 H         1 <0>         0.3920
     68 H34       -13.1268   -8.4144   -1.3276 H         1 <0>         0.0750
     69 H35       -13.7913  -10.0656   -1.3439 H         1 <0>         0.0773
     70 H36       -13.0766   -9.4154    0.8407 H         1 <0>         0.3993
     71 H37        -4.1480  -11.8347    1.0560 H         1 <0>         0.1116
     72 H38        -2.0461  -10.9909    2.0219 H         1 <0>         0.1222
     73 H39        -2.0801   -9.0549    3.5431 H         1 <0>         0.1227
     74 H40        -4.2159   -7.9622    4.0977 H         1 <0>         0.1217
     75 H41        -6.3168   -8.8009    3.1252 H         1 <0>         0.1143
     76 H42        -5.9051  -12.6988    0.9206 H         1 <0>         0.3814
     77 H43        -7.5294  -10.5605   -2.5185 H         1 <0>         0.4302
@<TRIPOS>BOND
     1    1    2 1
     2    1   37 1
     3    1   38 1
     4    1   39 1
     5    2    3 1
     6    2   40 1
     7    2   41 1
     8    3    4 1
     9    3   42 1
    10    3   43 1
    11    4    5 1
    12    4   44 1
    13    4   45 1
    14    5    6 1
    15    5   46 1
    16    5   47 1
    17    6    7 1
    18    6   48 1
    19    6   49 1
    20    7    8 1
    21    7   50 1
    22    7   51 1
    23    8    9 1
    24    8   52 1
    25    8   53 1
    26    9   10 1
    27    9   54 1
    28    9   55 1
    29   10   11 2
    30   10   12 am
    31   12   13 1
    32   12   56 1
    33   13   14 1
    34   13   15 1
    35   13   28 1
    36   15   16 1
    37   15   57 1
    38   15   58 1
    39   16   17 1
    40   16   59 1
    41   16   77 1
    42   17   22 1
    43   17   18 1
    44   17   60 1
    45   18   19 2
    46   18   61 1
    47   19   20 1
    48   19   26 1
    49   20   21 1
    50   20   25 1
    51   20   62 1
    52   21   22 1
    53   21   24 1
    54   21   63 1
    55   22   23 1
    56   22   64 1
    57   23   65 1
    58   24   66 1
    59   25   67 1
    60   26   27 1
    61   26   68 1
    62   26   69 1
    63   27   70 1
    64   28   29 1
    65   28   30 1
    66   28   36 1
    67   30   35 ar
    68   30   31 ar
    69   31   32 ar
    70   31   71 1
    71   32   33 ar
    72   32   72 1
    73   33   34 ar
    74   33   73 1
    75   34   35 ar
    76   34   74 1
    77   35   75 1
    78   36   76 1
@<TRIPOS>MOLECULE
CHEMBL57496__27
   76    77     0     0     0
SMALL
USER_CHARGES

@<TRIPOS>ATOM
      1 C1         -0.0187    1.5258    0.0104 C.3       1 <0>        -0.1541
      2 C2          0.0021   -0.0041    0.0020 C.3       1 <0>        -0.1263
      3 C3          0.7182   -0.4975   -1.2568 C.3       1 <0>        -0.1209
      4 C4          0.7390   -2.0273   -1.2652 C.3       1 <0>        -0.1215
      5 C5          1.4551   -2.5207   -2.5240 C.3       1 <0>        -0.1197
      6 C6          1.4758   -4.0506   -2.5324 C.3       1 <0>        -0.1195
      7 C7          2.1920   -4.5440   -3.7912 C.3       1 <0>        -0.1194
      8 C8          2.2127   -6.0738   -3.7996 C.3       1 <0>        -0.1009
      9 C9          2.9289   -6.5673   -5.0584 C.3       1 <0>        -0.1395
     10 C10         2.9493   -8.0741   -5.0667 C.2       1 <0>         0.5148
     11 O1          2.4411   -8.6925   -4.1555 O.2       1 <0>        -0.5116
     12 N1          3.5323   -8.7345   -6.0867 N.am      1 <0>        -0.7269
     13 C11         3.5522  -10.1994   -6.0948 C.3       1 <0>         0.1254
     14 H1          3.6564  -10.5669   -5.0739 H         1 <0>         0.1064
     15 C12         4.7327  -10.6888   -6.9361 C.3       1 <0>         0.0408
     16 N2          5.9753  -10.0889   -6.4321 N.3       1 <0>        -0.6594
     17 C13         7.1327  -10.5372   -7.2177 C.3       1 <0>         0.1253
     18 C14         7.2684   -9.6762   -8.4393 C.2       1 <0>        -0.1527
     19 C15         8.3950   -9.2174   -8.8817 C.2       1 <0>        -0.1504
     20 C16         9.7218   -9.4735   -8.2288 C.3       1 <0>         0.1211
     21 C17         9.6153  -10.6577   -7.2655 C.3       1 <0>         0.0832
     22 C18         8.3965  -10.4388   -6.3604 C.3       1 <0>         0.1329
     23 O2          8.4704   -9.1438   -5.7607 O.3       1 <0>        -0.5504
     24 O3         10.7982  -10.7358   -6.4676 O.3       1 <0>        -0.5603
     25 O4         10.6953   -9.7660   -9.2332 O.3       1 <0>        -0.5639
     26 C19         8.3729   -8.3730  -10.1297 C.3       1 <0>         0.1059
     27 O5          7.0278   -8.2460  -10.5951 O.3       1 <0>        -0.5689
     28 C20         2.2461  -10.7238   -6.6948 C.3       1 <0>         0.1386
     29 H2          2.1419  -10.3563   -7.7156 H         1 <0>         0.0617
     30 C21         1.0834  -10.2418   -5.8661 C.ar      1 <0>        -0.0686
     31 C22         0.7639  -10.8834   -4.6841 C.ar      1 <0>        -0.0644
     32 C23        -0.3026  -10.4413   -3.9240 C.ar      1 <0>        -0.1150
     33 C24        -1.0495   -9.3571   -4.3456 C.ar      1 <0>        -0.1128
     34 C25        -0.7295   -8.7149   -5.5271 C.ar      1 <0>        -0.1217
     35 C26         0.3397   -9.1544   -6.2851 C.ar      1 <0>        -0.1122
     36 O6          2.2655  -12.1527   -6.7026 O.3       1 <0>        -0.5526
     37 H3          1.0039    1.9031    0.0027 H         1 <0>         0.0532
     38 H4         -0.5459    1.8868   -0.8726 H         1 <0>         0.0531
     39 H5         -0.5289    1.8773    0.9072 H         1 <0>         0.0533
     40 H6          0.5293   -0.3651    0.8851 H         1 <0>         0.0604
     41 H7         -1.0205   -0.3814    0.0098 H         1 <0>         0.0603
     42 H8          0.1910   -0.1364   -2.1398 H         1 <0>         0.0602
     43 H9          1.7408   -0.1202   -1.2645 H         1 <0>         0.0603
     44 H10         1.2661   -2.3884   -0.3821 H         1 <0>         0.0608
     45 H11        -0.2836   -2.4046   -1.2575 H         1 <0>         0.0607
     46 H12         0.9279   -2.1597   -3.4071 H         1 <0>         0.0599
     47 H13         2.4777   -2.1435   -2.5317 H         1 <0>         0.0601
     48 H14         2.0030   -4.4117   -1.6494 H         1 <0>         0.0616
     49 H15         0.4533   -4.4279   -2.5247 H         1 <0>         0.0615
     50 H16         1.6648   -4.1829   -4.6743 H         1 <0>         0.0601
     51 H17         3.2146   -4.1667   -3.7990 H         1 <0>         0.0605
     52 H18         2.7399   -6.4349   -2.9166 H         1 <0>         0.0682
     53 H19         1.1901   -6.4511   -3.7919 H         1 <0>         0.0697
     54 H20         2.4017   -6.2062   -5.9415 H         1 <0>         0.0880
     55 H21         3.9515   -6.1900   -5.0662 H         1 <0>         0.0895
     56 H22         3.9388   -8.2400   -6.8155 H         1 <0>         0.3954
     57 H23         4.8005  -11.7747   -6.8700 H         1 <0>         0.0903
     58 H24         4.5838  -10.3967   -7.9756 H         1 <0>         0.0402
     59 H25         5.9128   -9.0819   -6.4227 H         1 <0>         0.3541
     60 H26         6.9830  -11.5729   -7.5229 H         1 <0>         0.1026
     61 H27         6.3702   -9.4240   -8.9833 H         1 <0>         0.1263
     62 H28        10.0304   -8.5856   -7.6771 H         1 <0>         0.0803
     63 H29         9.4901  -11.5806   -7.8318 H         1 <0>         0.0741
     64 H30         8.3737  -11.2043   -5.5848 H         1 <0>         0.0791
     65 H31         9.2491   -9.0127   -5.2025 H         1 <0>         0.3840
     66 H32        11.6100  -10.8578   -6.9786 H         1 <0>         0.3905
     67 H33        10.8246   -9.0542   -9.8748 H         1 <0>         0.3812
     68 H34         8.7751   -7.3847   -9.9069 H         1 <0>         0.0577
     69 H35         8.9808   -8.8473  -10.9001 H         1 <0>         0.0606
     70 H36         6.9379   -7.7138  -11.3975 H         1 <0>         0.3858
     71 H37         1.3474  -11.7305   -4.3547 H         1 <0>         0.1178
     72 H38        -0.5526  -10.9430   -3.0008 H         1 <0>         0.1167
     73 H39        -1.8832   -9.0121   -3.7521 H         1 <0>         0.1161
     74 H40        -1.3132   -7.8681   -5.8567 H         1 <0>         0.1161
     75 H41         0.5920   -8.6504   -7.2063 H         1 <0>         0.1105
     76 H42         2.9895  -12.5334   -7.2183 H         1 <0>         0.3770
@<TRIPOS>BOND
     1    1    2 1
     2    1   37 1
     3    1   38 1
     4    1   39 1
     5    2    3 1
     6    2   40 1
     7    2   41 1
     8    3    4 1
     9    3   42 1
    10    3   43 1
    11    4    5 1
    12    4   44 1
    13    4   45 1
    14    5    6 1
    15    5   46 1
    16    5   47 1
    17    6    7 1
    18    6   48 1
    19    6   49 1
    20    7    8 1
    21    7   50 1
    22    7   51 1
    23    8    9 1
    24    8   52 1
    25    8   53 1
    26    9   10 1
    27    9   54 1
    28    9   55 1
    29   10   11 2
    30   10   12 am
    31   12   13 1
    32   12   56 1
    33   13   14 1
    34   13   15 1
    35   13   28 1
    36   15   16 1
    37   15   57 1
    38   15   58 1
    39   16   17 1
    40   16   59 1
    41   17   22 1
    42   17   18 1
    43   17   60 1
    44   18   19 2
    45   18   61 1
    46   19   20 1
    47   19   26 1
    48   20   21 1
    49   20   25 1
    50   20   62 1
    51   21   22 1
    52   21   24 1
    53   21   63 1
    54   22   23 1
    55   22   64 1
    56   23   65 1
    57   24   66 1
    58   25   67 1
    59   26   27 1
    60   26   68 1
    61   26   69 1
    62   27   70 1
    63   28   29 1
    64   28   30 1
    65   28   36 1
    66   30   35 ar
    67   30   31 ar
    68   31   32 ar
    69   31   71 1
    70   32   33 ar
    71   32   72 1
    72   33   34 ar
    73   33   73 1
    74   34   35 ar
    75   34   74 1
    76   35   75 1
    77   36   76 1
@<TRIPOS>MOLECULE
CHEMBL57496__28
   77    78     0     0     0
SMALL
USER_CHARGES

@<TRIPOS>ATOM
      1 C1         -0.0187    1.5258    0.0104 C.3       1 <0>        -0.1550
      2 C2          0.0021   -0.0041    0.0020 C.3       1 <0>        -0.1264
      3 C3         -1.4333   -0.5336    0.0129 C.3       1 <0>        -0.1210
      4 C4         -1.4126   -2.0635    0.0045 C.3       1 <0>        -0.1219
      5 C5         -2.8479   -2.5931    0.0153 C.3       1 <0>        -0.1200
      6 C6         -2.8272   -4.1229    0.0069 C.3       1 <0>        -0.1202
      7 C7         -4.2626   -4.6525    0.0178 C.3       1 <0>        -0.1197
      8 C8         -4.2418   -6.1823    0.0094 C.3       1 <0>        -0.1040
      9 C9         -5.6772   -6.7119    0.0202 C.3       1 <0>        -0.1390
     10 C10        -5.6568   -8.2187    0.0119 C.2       1 <0>         0.5139
     11 O1         -4.5984   -8.8108   -0.0014 O.2       1 <0>        -0.4900
     12 N1         -6.8147   -8.9084    0.0193 N.am      1 <0>        -0.7511
     13 C11        -6.7948  -10.3733    0.0112 C.3       1 <0>         0.0952
     14 H1         -5.9538  -10.7220   -0.5882 H         1 <0>         0.1165
     15 C12        -8.1009  -10.8977   -0.5888 C.3       1 <0>        -0.0171
     16 N2         -8.3005  -10.3073   -1.9190 N.4       1 <0>        -0.5026
     17 C13        -9.5545  -10.8109   -2.4951 C.3       1 <0>         0.0837
     18 C14       -10.7093  -10.3434   -1.6585 C.2       1 <0>        -0.1909
     19 C15       -11.8207   -9.8914   -2.1442 C.2       1 <0>        -0.0854
     20 C16       -12.1057   -9.7616   -3.6118 C.3       1 <0>         0.0998
     21 C17       -11.1174  -10.6077   -4.4175 C.3       1 <0>         0.0932
     22 C18        -9.6982  -10.2934   -3.9280 C.3       1 <0>         0.0972
     23 O2         -8.7444  -10.9426   -4.7711 O.3       1 <0>        -0.5534
     24 O3        -11.3983  -11.9945   -4.2181 O.3       1 <0>        -0.5472
     25 O4        -13.4372  -10.2077   -3.8770 O.3       1 <0>        -0.5487
     26 C19       -12.8950   -9.4686   -1.1756 C.3       1 <0>         0.0939
     27 O5        -12.4347   -9.6670    0.1626 O.3       1 <0>        -0.5731
     28 C20        -6.6485  -10.8892    1.4442 C.3       1 <0>         0.1482
     29 H2         -7.4895  -10.5406    2.0435 H         1 <0>         0.1161
     30 C21        -5.3620  -10.3726    2.0351 C.ar      1 <0>        -0.1184
     31 C22        -4.1629  -10.9855    1.7231 C.ar      1 <0>        -0.0861
     32 C23        -2.9829  -10.5117    2.2652 C.ar      1 <0>        -0.1048
     33 C24        -3.0019   -9.4247    3.1190 C.ar      1 <0>        -0.1040
     34 C25        -4.2009   -8.8112    3.4303 C.ar      1 <0>        -0.1144
     35 C26        -5.3805   -9.2824    2.8849 C.ar      1 <0>        -0.1082
     36 O6         -6.6291  -12.3181    1.4363 O.3       1 <0>        -0.5456
     37 H3          1.0039    1.9031    0.0027 H         1 <0>         0.0549
     38 H4         -0.5459    1.8868   -0.8726 H         1 <0>         0.0534
     39 H5         -0.5289    1.8773    0.9072 H         1 <0>         0.0537
     40 H6          0.5123   -0.3556   -0.8948 H         1 <0>         0.0605
     41 H7          0.5293   -0.3651    0.8851 H         1 <0>         0.0608
     42 H8         -1.9435   -0.1821    0.9097 H         1 <0>         0.0608
     43 H9         -1.9605   -0.1726   -0.8702 H         1 <0>         0.0604
     44 H10        -0.9024   -2.4150   -0.8923 H         1 <0>         0.0609
     45 H11        -0.8854   -2.4246    0.8875 H         1 <0>         0.0614
     46 H12        -3.3581   -2.2415    0.9121 H         1 <0>         0.0610
     47 H13        -3.3751   -2.2320   -0.8677 H         1 <0>         0.0602
     48 H14        -2.3170   -4.4744   -0.8899 H         1 <0>         0.0618
     49 H15        -2.3000   -4.4840    0.8900 H         1 <0>         0.0627
     50 H16        -4.7728   -4.3010    0.9146 H         1 <0>         0.0627
     51 H17        -4.7898   -4.2914   -0.8653 H         1 <0>         0.0610
     52 H18        -3.7316   -6.5338   -0.8874 H         1 <0>         0.0692
     53 H19        -3.7146   -6.5434    0.8924 H         1 <0>         0.0725
     54 H20        -6.1874   -6.3604    0.9170 H         1 <0>         0.0969
     55 H21        -6.2044   -6.3508   -0.8628 H         1 <0>         0.0922
     56 H22        -7.6612   -8.4349    0.0299 H         1 <0>         0.4005
     57 H23        -8.0503  -11.9830   -0.6768 H         1 <0>         0.1556
     58 H24        -8.9339  -10.6242    0.0588 H         1 <0>         0.1435
     59 H25        -8.3473   -9.3027   -1.8375 H         1 <0>         0.4194
     60 H26        -9.5357  -11.9007   -2.5047 H         1 <0>         0.1651
     61 H27       -10.6068  -10.3873   -0.5842 H         1 <0>         0.1558
     62 H28       -12.0114   -8.7167   -3.9072 H         1 <0>         0.0906
     63 H29       -11.2027  -10.3619   -5.4760 H         1 <0>         0.0921
     64 H30        -9.5347   -9.2159   -3.9465 H         1 <0>         0.0951
     65 H31        -8.7804  -10.6608   -5.6954 H         1 <0>         0.4084
     66 H32       -12.2873  -12.2591   -4.4917 H         1 <0>         0.4019
     67 H33       -14.1199   -9.7091   -3.4075 H         1 <0>         0.3940
     68 H34       -13.1268   -8.4144   -1.3276 H         1 <0>         0.0738
     69 H35       -13.7913  -10.0656   -1.3439 H         1 <0>         0.0773
     70 H36       -13.0766   -9.4154    0.8407 H         1 <0>         0.3994
     71 H37        -4.1480  -11.8347    1.0560 H         1 <0>         0.1120
     72 H38        -2.0461  -10.9909    2.0219 H         1 <0>         0.1222
     73 H39        -2.0801   -9.0549    3.5431 H         1 <0>         0.1226
     74 H40        -4.2159   -7.9622    4.0977 H         1 <0>         0.1215
     75 H41        -6.3168   -8.8009    3.1252 H         1 <0>         0.1141
     76 H42        -5.9051  -12.6988    0.9206 H         1 <0>         0.3819
     77 H43        -7.5294  -10.5605   -2.5185 H         1 <0>         0.4364
@<TRIPOS>BOND
     1    1    2 1
     2    1   37 1
     3    1   38 1
     4    1   39 1
     5    2    3 1
     6    2   40 1
     7    2   41 1
     8    3    4 1
     9    3   42 1
    10    3   43 1
    11    4    5 1
    12    4   44 1
    13    4   45 1
    14    5    6 1
    15    5   46 1
    16    5   47 1
    17    6    7 1
    18    6   48 1
    19    6   49 1
    20    7    8 1
    21    7   50 1
    22    7   51 1
    23    8    9 1
    24    8   52 1
    25    8   53 1
    26    9   10 1
    27    9   54 1
    28    9   55 1
    29   10   11 2
    30   10   12 am
    31   12   13 1
    32   12   56 1
    33   13   14 1
    34   13   15 1
    35   13   28 1
    36   15   16 1
    37   15   57 1
    38   15   58 1
    39   16   17 1
    40   16   59 1
    41   16   77 1
    42   17   22 1
    43   17   18 1
    44   17   60 1
    45   18   19 2
    46   18   61 1
    47   19   20 1
    48   19   26 1
    49   20   21 1
    50   20   25 1
    51   20   62 1
    52   21   22 1
    53   21   24 1
    54   21   63 1
    55   22   23 1
    56   22   64 1
    57   23   65 1
    58   24   66 1
    59   25   67 1
    60   26   27 1
    61   26   68 1
    62   26   69 1
    63   27   70 1
    64   28   29 1
    65   28   30 1
    66   28   36 1
    67   30   35 ar
    68   30   31 ar
    69   31   32 ar
    70   31   71 1
    71   32   33 ar
    72   32   72 1
    73   33   34 ar
    74   33   73 1
    75   34   35 ar
    76   34   74 1
    77   35   75 1
    78   36   76 1
@<TRIPOS>MOLECULE
CHEMBL57496__29
   76    77     0     0     0
SMALL
USER_CHARGES

@<TRIPOS>ATOM
      1 C1         -0.0187    1.5258    0.0104 C.3       1 <0>        -0.1541
      2 C2          0.0021   -0.0041    0.0020 C.3       1 <0>        -0.1264
      3 C3          0.7182   -0.4975   -1.2568 C.3       1 <0>        -0.1208
      4 C4          0.7390   -2.0273   -1.2652 C.3       1 <0>        -0.1216
      5 C5          1.4551   -2.5207   -2.5240 C.3       1 <0>        -0.1196
      6 C6          1.4758   -4.0506   -2.5324 C.3       1 <0>        -0.1197
      7 C7          2.1920   -4.5440   -3.7912 C.3       1 <0>        -0.1192
      8 C8          2.2127   -6.0738   -3.7996 C.3       1 <0>        -0.1013
      9 C9          2.9289   -6.5673   -5.0584 C.3       1 <0>        -0.1392
     10 C10         2.9493   -8.0741   -5.0667 C.2       1 <0>         0.5133
     11 O1          2.4411   -8.6925   -4.1555 O.2       1 <0>        -0.5105
     12 N1          3.5323   -8.7345   -6.0867 N.am      1 <0>        -0.7273
     13 C11         3.5522  -10.1994   -6.0948 C.3       1 <0>         0.1249
     14 H1          3.6564  -10.5669   -5.0739 H         1 <0>         0.1068
     15 C12         4.7327  -10.6888   -6.9361 C.3       1 <0>         0.0466
     16 N2          5.9753  -10.0889   -6.4321 N.3       1 <0>        -0.6643
     17 C13         7.1327  -10.5372   -7.2177 C.3       1 <0>         0.1283
     18 C14         7.2684   -9.6762   -8.4393 C.2       1 <0>        -0.1399
     19 C15         8.3950   -9.2174   -8.8817 C.2       1 <0>        -0.1616
     20 C16         9.7218   -9.4735   -8.2288 C.3       1 <0>         0.1159
     21 C17         9.6153  -10.6577   -7.2655 C.3       1 <0>         0.0863
     22 C18         8.3965  -10.4388   -6.3604 C.3       1 <0>         0.1311
     23 O2          8.3666  -11.4424   -5.3436 O.3       1 <0>        -0.5375
     24 O3          9.4511  -11.8676   -8.0079 O.3       1 <0>        -0.5433
     25 O4         10.6953   -9.7660   -9.2332 O.3       1 <0>        -0.5584
     26 C19         8.3729   -8.3730  -10.1297 C.3       1 <0>         0.1067
     27 O5          7.0278   -8.2460  -10.5951 O.3       1 <0>        -0.5689
     28 C20         2.2461  -10.7238   -6.6948 C.3       1 <0>         0.1386
     29 H2          2.1419  -10.3563   -7.7156 H         1 <0>         0.0613
     30 C21         1.0834  -10.2418   -5.8661 C.ar      1 <0>        -0.0681
     31 C22         0.7639  -10.8834   -4.6841 C.ar      1 <0>        -0.0642
     32 C23        -0.3026  -10.4413   -3.9240 C.ar      1 <0>        -0.1150
     33 C24        -1.0495   -9.3571   -4.3456 C.ar      1 <0>        -0.1132
     34 C25        -0.7295   -8.7149   -5.5271 C.ar      1 <0>        -0.1221
     35 C26         0.3397   -9.1544   -6.2851 C.ar      1 <0>        -0.1126
     36 O6          2.2655  -12.1527   -6.7026 O.3       1 <0>        -0.5528
     37 H3          1.0039    1.9031    0.0027 H         1 <0>         0.0531
     38 H4         -0.5459    1.8868   -0.8726 H         1 <0>         0.0531
     39 H5         -0.5289    1.8773    0.9072 H         1 <0>         0.0534
     40 H6          0.5293   -0.3651    0.8851 H         1 <0>         0.0604
     41 H7         -1.0205   -0.3814    0.0098 H         1 <0>         0.0604
     42 H8          0.1910   -0.1364   -2.1398 H         1 <0>         0.0602
     43 H9          1.7408   -0.1202   -1.2645 H         1 <0>         0.0602
     44 H10         1.2661   -2.3884   -0.3821 H         1 <0>         0.0608
     45 H11        -0.2836   -2.4046   -1.2575 H         1 <0>         0.0608
     46 H12         0.9279   -2.1597   -3.4071 H         1 <0>         0.0600
     47 H13         2.4777   -2.1435   -2.5317 H         1 <0>         0.0599
     48 H14         2.0030   -4.4117   -1.6494 H         1 <0>         0.0616
     49 H15         0.4533   -4.4279   -2.5247 H         1 <0>         0.0618
     50 H16         1.6648   -4.1829   -4.6743 H         1 <0>         0.0602
     51 H17         3.2146   -4.1667   -3.7990 H         1 <0>         0.0600
     52 H18         2.7399   -6.4349   -2.9166 H         1 <0>         0.0682
     53 H19         1.1901   -6.4511   -3.7919 H         1 <0>         0.0702
     54 H20         2.4017   -6.2062   -5.9415 H         1 <0>         0.0883
     55 H21         3.9515   -6.1900   -5.0662 H         1 <0>         0.0883
     56 H22         3.9388   -8.2400   -6.8155 H         1 <0>         0.3946
     57 H23         4.8005  -11.7747   -6.8700 H         1 <0>         0.0918
     58 H24         4.5838  -10.3967   -7.9756 H         1 <0>         0.0388
     59 H25         5.9128   -9.0819   -6.4227 H         1 <0>         0.3401
     60 H26         6.9830  -11.5729   -7.5229 H         1 <0>         0.1081
     61 H27         6.3702   -9.4240   -8.9833 H         1 <0>         0.1289
     62 H28        10.0304   -8.5856   -7.6771 H         1 <0>         0.0738
     63 H29        10.5176  -10.7173   -6.6569 H         1 <0>         0.0703
     64 H30         8.4529   -9.4510   -5.9030 H         1 <0>         0.0718
     65 H31         9.1396  -11.4368   -4.7626 H         1 <0>         0.3764
     66 H32        10.1801  -12.0593   -8.6138 H         1 <0>         0.3846
     67 H33        10.8246   -9.0542   -9.8748 H         1 <0>         0.3833
     68 H34         8.7751   -7.3847   -9.9069 H         1 <0>         0.0565
     69 H35         8.9808   -8.8473  -10.9001 H         1 <0>         0.0607
     70 H36         6.9379   -7.7138  -11.3975 H         1 <0>         0.3860
     71 H37         1.3474  -11.7305   -4.3547 H         1 <0>         0.1182
     72 H38        -0.5526  -10.9430   -3.0008 H         1 <0>         0.1167
     73 H39        -1.8832   -9.0121   -3.7521 H         1 <0>         0.1159
     74 H40        -1.3132   -7.8681   -5.8567 H         1 <0>         0.1159
     75 H41         0.5920   -8.6504   -7.2063 H         1 <0>         0.1103
     76 H42         2.9895  -12.5334   -7.2183 H         1 <0>         0.3782
@<TRIPOS>BOND
     1    1    2 1
     2    1   37 1
     3    1   38 1
     4    1   39 1
     5    2    3 1
     6    2   40 1
     7    2   41 1
     8    3    4 1
     9    3   42 1
    10    3   43 1
    11    4    5 1
    12    4   44 1
    13    4   45 1
    14    5    6 1
    15    5   46 1
    16    5   47 1
    17    6    7 1
    18    6   48 1
    19    6   49 1
    20    7    8 1
    21    7   50 1
    22    7   51 1
    23    8    9 1
    24    8   52 1
    25    8   53 1
    26    9   10 1
    27    9   54 1
    28    9   55 1
    29   10   11 2
    30   10   12 am
    31   12   13 1
    32   12   56 1
    33   13   14 1
    34   13   15 1
    35   13   28 1
    36   15   16 1
    37   15   57 1
    38   15   58 1
    39   16   17 1
    40   16   59 1
    41   17   22 1
    42   17   18 1
    43   17   60 1
    44   18   19 2
    45   18   61 1
    46   19   20 1
    47   19   26 1
    48   20   21 1
    49   20   25 1
    50   20   62 1
    51   21   22 1
    52   21   24 1
    53   21   63 1
    54   22   23 1
    55   22   64 1
    56   23   65 1
    57   24   66 1
    58   25   67 1
    59   26   27 1
    60   26   68 1
    61   26   69 1
    62   27   70 1
    63   28   29 1
    64   28   30 1
    65   28   36 1
    66   30   35 ar
    67   30   31 ar
    68   31   32 ar
    69   31   71 1
    70   32   33 ar
    71   32   72 1
    72   33   34 ar
    73   33   73 1
    74   34   35 ar
    75   34   74 1
    76   35   75 1
    77   36   76 1
@<TRIPOS>MOLECULE
CHEMBL57496__30
   77    78     0     0     0
SMALL
USER_CHARGES

@<TRIPOS>ATOM
      1 C1         -0.0187    1.5258    0.0104 C.3       1 <0>        -0.1550
      2 C2          0.0021   -0.0041    0.0020 C.3       1 <0>        -0.1264
      3 C3         -1.4333   -0.5336    0.0129 C.3       1 <0>        -0.1211
      4 C4         -1.4126   -2.0635    0.0045 C.3       1 <0>        -0.1218
      5 C5         -2.8479   -2.5931    0.0153 C.3       1 <0>        -0.1201
      6 C6         -2.8272   -4.1229    0.0069 C.3       1 <0>        -0.1200
      7 C7         -4.2626   -4.6525    0.0178 C.3       1 <0>        -0.1199
      8 C8         -4.2418   -6.1823    0.0094 C.3       1 <0>        -0.1034
      9 C9         -5.6772   -6.7119    0.0202 C.3       1 <0>        -0.1394
     10 C10        -5.6568   -8.2187    0.0119 C.2       1 <0>         0.5152
     11 O1         -4.5984   -8.8108   -0.0014 O.2       1 <0>        -0.4921
     12 N1         -6.8147   -8.9084    0.0193 N.am      1 <0>        -0.7501
     13 C11        -6.7948  -10.3733    0.0112 C.3       1 <0>         0.0959
     14 H1         -5.9538  -10.7220   -0.5882 H         1 <0>         0.1156
     15 C12        -8.1009  -10.8977   -0.5888 C.3       1 <0>        -0.0189
     16 N2         -8.3005  -10.3073   -1.9190 N.4       1 <0>        -0.4998
     17 C13        -9.5545  -10.8109   -2.4951 C.3       1 <0>         0.0870
     18 C14       -10.7093  -10.3434   -1.6585 C.2       1 <0>        -0.1907
     19 C15       -11.8207   -9.8914   -2.1442 C.2       1 <0>        -0.0775
     20 C16       -12.1057   -9.7616   -3.6118 C.3       1 <0>         0.1049
     21 C17       -11.1174  -10.6077   -4.4175 C.3       1 <0>         0.0927
     22 C18        -9.6982  -10.2934   -3.9280 C.3       1 <0>         0.0942
     23 O2         -9.4839   -8.8808   -3.9523 O.3       1 <0>        -0.5625
     24 O3        -11.3983  -11.9945   -4.2181 O.3       1 <0>        -0.5539
     25 O4        -13.4372  -10.2077   -3.8770 O.3       1 <0>        -0.5535
     26 C19       -12.8950   -9.4686   -1.1756 C.3       1 <0>         0.0941
     27 O5        -12.4347   -9.6670    0.1626 O.3       1 <0>        -0.5729
     28 C20        -6.6485  -10.8892    1.4442 C.3       1 <0>         0.1478
     29 H2         -7.4895  -10.5406    2.0435 H         1 <0>         0.1161
     30 C21        -5.3620  -10.3726    2.0351 C.ar      1 <0>        -0.1180
     31 C22        -4.1629  -10.9855    1.7231 C.ar      1 <0>        -0.0862
     32 C23        -2.9829  -10.5117    2.2652 C.ar      1 <0>        -0.1049
     33 C24        -3.0019   -9.4247    3.1190 C.ar      1 <0>        -0.1040
     34 C25        -4.2009   -8.8112    3.4303 C.ar      1 <0>        -0.1142
     35 C26        -5.3805   -9.2824    2.8849 C.ar      1 <0>        -0.1081
     36 O6         -6.6291  -12.3181    1.4363 O.3       1 <0>        -0.5457
     37 H3          1.0039    1.9031    0.0027 H         1 <0>         0.0549
     38 H4         -0.5459    1.8868   -0.8726 H         1 <0>         0.0534
     39 H5         -0.5289    1.8773    0.9072 H         1 <0>         0.0537
     40 H6          0.5123   -0.3556   -0.8948 H         1 <0>         0.0604
     41 H7          0.5293   -0.3651    0.8851 H         1 <0>         0.0607
     42 H8         -1.9435   -0.1821    0.9097 H         1 <0>         0.0608
     43 H9         -1.9605   -0.1726   -0.8702 H         1 <0>         0.0604
     44 H10        -0.9024   -2.4150   -0.8923 H         1 <0>         0.0608
     45 H11        -0.8854   -2.4246    0.8875 H         1 <0>         0.0613
     46 H12        -3.3581   -2.2415    0.9121 H         1 <0>         0.0610
     47 H13        -3.3751   -2.2320   -0.8677 H         1 <0>         0.0603
     48 H14        -2.3170   -4.4744   -0.8899 H         1 <0>         0.0617
     49 H15        -2.3000   -4.4840    0.8900 H         1 <0>         0.0626
     50 H16        -4.7728   -4.3010    0.9146 H         1 <0>         0.0626
     51 H17        -4.7898   -4.2914   -0.8653 H         1 <0>         0.0613
     52 H18        -3.7316   -6.5338   -0.8874 H         1 <0>         0.0689
     53 H19        -3.7146   -6.5434    0.8924 H         1 <0>         0.0721
     54 H20        -6.1874   -6.3604    0.9170 H         1 <0>         0.0965
     55 H21        -6.2044   -6.3508   -0.8628 H         1 <0>         0.0931
     56 H22        -7.6612   -8.4349    0.0299 H         1 <0>         0.4016
     57 H23        -8.0503  -11.9830   -0.6768 H         1 <0>         0.1546
     58 H24        -8.9339  -10.6242    0.0588 H         1 <0>         0.1432
     59 H25        -8.3473   -9.3027   -1.8375 H         1 <0>         0.4302
     60 H26        -9.5357  -11.9007   -2.5047 H         1 <0>         0.1654
     61 H27       -10.6068  -10.3873   -0.5842 H         1 <0>         0.1494
     62 H28       -12.0114   -8.7167   -3.9072 H         1 <0>         0.0921
     63 H29       -11.2027  -10.3619   -5.4760 H         1 <0>         0.0912
     64 H30        -8.9707  -10.7886   -4.5711 H         1 <0>         0.1037
     65 H31        -9.5603   -8.4865   -4.8319 H         1 <0>         0.4114
     66 H32       -12.2873  -12.2591   -4.4917 H         1 <0>         0.4066
     67 H33       -14.1199   -9.7091   -3.4075 H         1 <0>         0.3932
     68 H34       -13.1268   -8.4144   -1.3276 H         1 <0>         0.0722
     69 H35       -13.7913  -10.0656   -1.3439 H         1 <0>         0.0751
     70 H36       -13.0766   -9.4154    0.8407 H         1 <0>         0.3981
     71 H37        -4.1480  -11.8347    1.0560 H         1 <0>         0.1116
     72 H38        -2.0461  -10.9909    2.0219 H         1 <0>         0.1221
     73 H39        -2.0801   -9.0549    3.5431 H         1 <0>         0.1226
     74 H40        -4.2159   -7.9622    4.0977 H         1 <0>         0.1216
     75 H41        -6.3168   -8.8009    3.1252 H         1 <0>         0.1142
     76 H42        -5.9051  -12.6988    0.9206 H         1 <0>         0.3813
     77 H43        -7.5294  -10.5605   -2.5185 H         1 <0>         0.4286
@<TRIPOS>BOND
     1    1    2 1
     2    1   37 1
     3    1   38 1
     4    1   39 1
     5    2    3 1
     6    2   40 1
     7    2   41 1
     8    3    4 1
     9    3   42 1
    10    3   43 1
    11    4    5 1
    12    4   44 1
    13    4   45 1
    14    5    6 1
    15    5   46 1
    16    5   47 1
    17    6    7 1
    18    6   48 1
    19    6   49 1
    20    7    8 1
    21    7   50 1
    22    7   51 1
    23    8    9 1
    24    8   52 1
    25    8   53 1
    26    9   10 1
    27    9   54 1
    28    9   55 1
    29   10   11 2
    30   10   12 am
    31   12   13 1
    32   12   56 1
    33   13   14 1
    34   13   15 1
    35   13   28 1
    36   15   16 1
    37   15   57 1
    38   15   58 1
    39   16   17 1
    40   16   59 1
    41   16   77 1
    42   17   22 1
    43   17   18 1
    44   17   60 1
    45   18   19 2
    46   18   61 1
    47   19   20 1
    48   19   26 1
    49   20   21 1
    50   20   25 1
    51   20   62 1
    52   21   22 1
    53   21   24 1
    54   21   63 1
    55   22   23 1
    56   22   64 1
    57   23   65 1
    58   24   66 1
    59   25   67 1
    60   26   27 1
    61   26   68 1
    62   26   69 1
    63   27   70 1
    64   28   29 1
    65   28   30 1
    66   28   36 1
    67   30   35 ar
    68   30   31 ar
    69   31   32 ar
    70   31   71 1
    71   32   33 ar
    72   32   72 1
    73   33   34 ar
    74   33   73 1
    75   34   35 ar
    76   34   74 1
    77   35   75 1
    78   36   76 1
@<TRIPOS>MOLECULE
CHEMBL57496__31
   76    77     0     0     0
SMALL
USER_CHARGES

@<TRIPOS>ATOM
      1 C1         -0.0187    1.5258    0.0104 C.3       1 <0>        -0.1541
      2 C2          0.0021   -0.0041    0.0020 C.3       1 <0>        -0.1263
      3 C3          0.7182   -0.4975   -1.2568 C.3       1 <0>        -0.1209
      4 C4          0.7390   -2.0273   -1.2652 C.3       1 <0>        -0.1215
      5 C5          1.4551   -2.5207   -2.5240 C.3       1 <0>        -0.1197
      6 C6          1.4758   -4.0506   -2.5324 C.3       1 <0>        -0.1195
      7 C7          2.1920   -4.5440   -3.7912 C.3       1 <0>        -0.1194
      8 C8          2.2127   -6.0738   -3.7996 C.3       1 <0>        -0.1008
      9 C9          2.9289   -6.5673   -5.0584 C.3       1 <0>        -0.1395
     10 C10         2.9493   -8.0741   -5.0667 C.2       1 <0>         0.5146
     11 O1          2.4411   -8.6925   -4.1555 O.2       1 <0>        -0.5121
     12 N1          3.5323   -8.7345   -6.0867 N.am      1 <0>        -0.7264
     13 C11         3.5522  -10.1994   -6.0948 C.3       1 <0>         0.1256
     14 H1          3.6564  -10.5669   -5.0739 H         1 <0>         0.1058
     15 C12         4.7327  -10.6888   -6.9361 C.3       1 <0>         0.0416
     16 N2          5.9753  -10.0889   -6.4321 N.3       1 <0>        -0.6635
     17 C13         7.1327  -10.5372   -7.2177 C.3       1 <0>         0.1314
     18 C14         7.2684   -9.6762   -8.4393 C.2       1 <0>        -0.1395
     19 C15         8.3950   -9.2174   -8.8817 C.2       1 <0>        -0.1542
     20 C16         9.7218   -9.4735   -8.2288 C.3       1 <0>         0.1210
     21 C17         9.6153  -10.6577   -7.2655 C.3       1 <0>         0.0862
     22 C18         8.3965  -10.4388   -6.3604 C.3       1 <0>         0.1275
     23 O2          8.4704   -9.1438   -5.7607 O.3       1 <0>        -0.5452
     24 O3          9.4511  -11.8676   -8.0079 O.3       1 <0>        -0.5500
     25 O4         10.6953   -9.7660   -9.2332 O.3       1 <0>        -0.5634
     26 C19         8.3729   -8.3730  -10.1297 C.3       1 <0>         0.1067
     27 O5          7.0278   -8.2460  -10.5951 O.3       1 <0>        -0.5686
     28 C20         2.2461  -10.7238   -6.6948 C.3       1 <0>         0.1383
     29 H2          2.1419  -10.3563   -7.7156 H         1 <0>         0.0614
     30 C21         1.0834  -10.2418   -5.8661 C.ar      1 <0>        -0.0680
     31 C22         0.7639  -10.8834   -4.6841 C.ar      1 <0>        -0.0644
     32 C23        -0.3026  -10.4413   -3.9240 C.ar      1 <0>        -0.1151
     33 C24        -1.0495   -9.3571   -4.3456 C.ar      1 <0>        -0.1131
     34 C25        -0.7295   -8.7149   -5.5271 C.ar      1 <0>        -0.1218
     35 C26         0.3397   -9.1544   -6.2851 C.ar      1 <0>        -0.1123
     36 O6          2.2655  -12.1527   -6.7026 O.3       1 <0>        -0.5530
     37 H3          1.0039    1.9031    0.0027 H         1 <0>         0.0531
     38 H4         -0.5459    1.8868   -0.8726 H         1 <0>         0.0531
     39 H5         -0.5289    1.8773    0.9072 H         1 <0>         0.0533
     40 H6          0.5293   -0.3651    0.8851 H         1 <0>         0.0604
     41 H7         -1.0205   -0.3814    0.0098 H         1 <0>         0.0603
     42 H8          0.1910   -0.1364   -2.1398 H         1 <0>         0.0602
     43 H9          1.7408   -0.1202   -1.2645 H         1 <0>         0.0602
     44 H10         1.2661   -2.3884   -0.3821 H         1 <0>         0.0608
     45 H11        -0.2836   -2.4046   -1.2575 H         1 <0>         0.0607
     46 H12         0.9279   -2.1597   -3.4071 H         1 <0>         0.0600
     47 H13         2.4777   -2.1435   -2.5317 H         1 <0>         0.0600
     48 H14         2.0030   -4.4117   -1.6494 H         1 <0>         0.0615
     49 H15         0.4533   -4.4279   -2.5247 H         1 <0>         0.0616
     50 H16         1.6648   -4.1829   -4.6743 H         1 <0>         0.0601
     51 H17         3.2146   -4.1667   -3.7990 H         1 <0>         0.0604
     52 H18         2.7399   -6.4349   -2.9166 H         1 <0>         0.0681
     53 H19         1.1901   -6.4511   -3.7919 H         1 <0>         0.0698
     54 H20         2.4017   -6.2062   -5.9415 H         1 <0>         0.0879
     55 H21         3.9515   -6.1900   -5.0662 H         1 <0>         0.0893
     56 H22         3.9388   -8.2400   -6.8155 H         1 <0>         0.3953
     57 H23         4.8005  -11.7747   -6.8700 H         1 <0>         0.0898
     58 H24         4.5838  -10.3967   -7.9756 H         1 <0>         0.0389
     59 H25         5.9128   -9.0819   -6.4227 H         1 <0>         0.3508
     60 H26         6.9830  -11.5729   -7.5229 H         1 <0>         0.1080
     61 H27         6.3702   -9.4240   -8.9833 H         1 <0>         0.1219
     62 H28        10.0304   -8.5856   -7.6771 H         1 <0>         0.0760
     63 H29        10.5176  -10.7173   -6.6569 H         1 <0>         0.0690
     64 H30         8.3737  -11.2043   -5.5848 H         1 <0>         0.0792
     65 H31         9.2491   -9.0127   -5.2025 H         1 <0>         0.3786
     66 H32        10.1801  -12.0593   -8.6138 H         1 <0>         0.3897
     67 H33        10.8246   -9.0542   -9.8748 H         1 <0>         0.3824
     68 H34         8.7751   -7.3847   -9.9069 H         1 <0>         0.0549
     69 H35         8.9808   -8.8473  -10.9001 H         1 <0>         0.0584
     70 H36         6.9379   -7.7138  -11.3975 H         1 <0>         0.3845
     71 H37         1.3474  -11.7305   -4.3547 H         1 <0>         0.1178
     72 H38        -0.5526  -10.9430   -3.0008 H         1 <0>         0.1165
     73 H39        -1.8832   -9.0121   -3.7521 H         1 <0>         0.1159
     74 H40        -1.3132   -7.8681   -5.8567 H         1 <0>         0.1160
     75 H41         0.5920   -8.6504   -7.2063 H         1 <0>         0.1104
     76 H42         2.9895  -12.5334   -7.2183 H         1 <0>         0.3776
@<TRIPOS>BOND
     1    1    2 1
     2    1   37 1
     3    1   38 1
     4    1   39 1
     5    2    3 1
     6    2   40 1
     7    2   41 1
     8    3    4 1
     9    3   42 1
    10    3   43 1
    11    4    5 1
    12    4   44 1
    13    4   45 1
    14    5    6 1
    15    5   46 1
    16    5   47 1
    17    6    7 1
    18    6   48 1
    19    6   49 1
    20    7    8 1
    21    7   50 1
    22    7   51 1
    23    8    9 1
    24    8   52 1
    25    8   53 1
    26    9   10 1
    27    9   54 1
    28    9   55 1
    29   10   11 2
    30   10   12 am
    31   12   13 1
    32   12   56 1
    33   13   14 1
    34   13   15 1
    35   13   28 1
    36   15   16 1
    37   15   57 1
    38   15   58 1
    39   16   17 1
    40   16   59 1
    41   17   22 1
    42   17   18 1
    43   17   60 1
    44   18   19 2
    45   18   61 1
    46   19   20 1
    47   19   26 1
    48   20   21 1
    49   20   25 1
    50   20   62 1
    51   21   22 1
    52   21   24 1
    53   21   63 1
    54   22   23 1
    55   22   64 1
    56   23   65 1
    57   24   66 1
    58   25   67 1
    59   26   27 1
    60   26   68 1
    61   26   69 1
    62   27   70 1
    63   28   29 1
    64   28   30 1
    65   28   36 1
    66   30   35 ar
    67   30   31 ar
    68   31   32 ar
    69   31   71 1
    70   32   33 ar
    71   32   72 1
    72   33   34 ar
    73   33   73 1
    74   34   35 ar
    75   34   74 1
    76   35   75 1
    77   36   76 1
@<TRIPOS>MOLECULE
CHEMBL237350
   43    45     0     0     0
SMALL
USER_CHARGES

@<TRIPOS>ATOM
      1 C1         -0.0137    1.3824    0.0657 C.ar      1 <0>        -0.1171
      2 C2          1.0798    1.9568   -0.5566 C.ar      1 <0>        -0.1093
      3 C3          2.2892    1.2832   -0.5935 C.ar      1 <0>         0.0759
      4 C4          2.4017    0.0265   -0.0023 C.ar      1 <0>         0.1590
      5 C5          1.3018   -0.5440    0.6206 C.ar      1 <0>        -0.1067
      6 C6          0.0967    0.1349    0.6530 C.ar      1 <0>        -0.0226
      7 Cl1        -1.2797   -0.5804    1.4324 Cl        1 <0>        -0.0632
      8 N1          3.6227   -0.6591   -0.0373 N.pl3     1 <0>        -0.6178
      9 C7          3.6441   -2.0366    0.0594 C.ar      1 <0>         0.6509
     10 N2          2.5040   -2.7207    0.0621 N.ar      1 <0>        -0.6659
     11 C8          2.5247   -4.0465    0.1547 C.ar      1 <0>         0.6525
     12 N3          3.6855   -4.6886    0.2446 N.ar      1 <0>        -0.6704
     13 C9          4.8253   -4.0047    0.2419 C.ar      1 <0>         0.6734
     14 N4          4.8049   -2.6790    0.1442 N.ar      1 <0>        -0.6695
     15 N5          6.0302   -4.6712    0.3356 N.pl3     1 <0>        -0.5806
     16 C10         6.1977   -6.1284    0.4371 C.3       1 <0>         0.1243
     17 C11         7.7113   -6.4091    0.5452 C.3       1 <0>        -0.1341
     18 C12         8.2781   -5.0626    1.0678 C.3       1 <0>        -0.1352
     19 C13         7.3627   -4.0405    0.3441 C.3       1 <0>         0.1213
     20 N6          1.3413   -4.7566    0.1580 N.pl3     1 <0>        -0.6777
     21 C14         0.0622   -4.0491    0.0595 C.3       1 <0>         0.1354
     22 C15        -1.0842   -5.0620    0.0852 C.3       1 <0>         0.0617
     23 O1         -1.1118   -5.7179    1.3544 O.3       1 <0>        -0.5701
     24 O2          3.3648    1.8470   -1.2060 O.3       1 <0>        -0.4895
     25 H1         -0.9549    1.9112    0.0970 H         1 <0>         0.1383
     26 H2          0.9904    2.9310   -1.0142 H         1 <0>         0.1429
     27 H3          1.3856   -1.5180    1.0795 H         1 <0>         0.1672
     28 H4          4.4531   -0.1664   -0.1295 H         1 <0>         0.4279
     29 H5          5.6875   -6.4991    1.3261 H         1 <0>         0.0707
     30 H6          5.7938   -6.6108   -0.4529 H         1 <0>         0.0697
     31 H7          7.9049   -7.2114    1.2573 H         1 <0>         0.0860
     32 H8          8.1296   -6.6502   -0.4321 H         1 <0>         0.0786
     33 H9          8.1731   -4.9884    2.1502 H         1 <0>         0.0777
     34 H10         9.3181   -4.9338    0.7680 H         1 <0>         0.0881
     35 H11         7.7094   -3.8726   -0.6755 H         1 <0>         0.0693
     36 H12         7.3340   -3.1007    0.8955 H         1 <0>         0.0828
     37 H13         1.3564   -5.7241    0.2256 H         1 <0>         0.4190
     38 H14        -0.0396   -3.3636    0.9009 H         1 <0>         0.0788
     39 H15         0.0292   -3.4865   -0.8735 H         1 <0>         0.0840
     40 H16        -2.0298   -4.5446   -0.0771 H         1 <0>         0.0677
     41 H17        -0.9342   -5.8005   -0.7023 H         1 <0>         0.0545
     42 H18        -1.8155   -6.3754    1.4421 H         1 <0>         0.3836
     43 H19         3.9107    2.3899   -0.6210 H         1 <0>         0.3886
@<TRIPOS>BOND
     1    1    6 ar
     2    1    2 ar
     3    1   25 1
     4    2    3 ar
     5    2   26 1
     6    3    4 ar
     7    3   24 1
     8    4    5 ar
     9    4    8 1
    10    5    6 ar
    11    5   27 1
    12    6    7 1
    13    8    9 1
    14    8   28 1
    15    9   14 ar
    16    9   10 ar
    17   10   11 ar
    18   11   12 ar
    19   11   20 1
    20   12   13 ar
    21   13   14 ar
    22   13   15 1
    23   15   19 1
    24   15   16 1
    25   16   17 1
    26   16   29 1
    27   16   30 1
    28   17   18 1
    29   17   31 1
    30   17   32 1
    31   18   19 1
    32   18   33 1
    33   18   34 1
    34   19   35 1
    35   19   36 1
    36   20   21 1
    37   20   37 1
    38   21   22 1
    39   21   38 1
    40   21   39 1
    41   22   23 1
    42   22   40 1
    43   22   41 1
    44   23   42 1
    45   24   43 1
@<TRIPOS>MOLECULE
CHEMBL259853
   57    60     0     0     0
SMALL
USER_CHARGES

@<TRIPOS>ATOM
      1 C1         -0.3046    1.9063    0.0810 C.3       1 <0>        -0.1440
      2 C2         -0.3584    0.4074   -0.0660 C.ar      1 <0>         0.0981
      3 C3         -0.4746   -0.1704   -1.2945 C.ar      1 <0>        -0.2264
      4 C4         -0.5223   -1.5669   -1.4075 C.ar      1 <0>         0.4981
      5 N1         -0.4578   -2.3466   -0.3481 N.ar      1 <0>        -0.5259
      6 C5         -0.3432   -1.8368    0.8839 C.ar      1 <0>         0.1471
      7 C6         -0.2839   -0.4331    1.0636 C.ar      1 <0>        -0.0908
      8 C7         -0.1587    0.0971    2.3565 C.ar      1 <0>        -0.0954
      9 C8         -0.0894   -0.7564    3.4357 C.ar      1 <0>         0.1681
     10 C9         -0.1428   -2.1421    3.2512 C.ar      1 <0>        -0.0399
     11 C10        -0.2755   -2.6779    2.0083 C.ar      1 <0>        -0.1240
     12 N2          0.0361   -0.2326    4.7279 N.am      1 <0>        -0.6785
     13 C11         0.7660   -0.8874    5.6525 C.2       1 <0>         0.5231
     14 O1          1.3940   -1.8769    5.3400 O.2       1 <0>        -0.5086
     15 C12         0.8018   -0.3902    7.0746 C.3       1 <0>        -0.1045
     16 C13         1.3607    1.0338    7.1031 C.3       1 <0>        -0.1119
     17 C14         1.3971    1.5386    8.5470 C.3       1 <0>        -0.1143
     18 C15         2.2915    0.6229    9.3850 C.3       1 <0>        -0.0956
     19 C16         1.7326   -0.8011    9.3566 C.3       1 <0>        -0.1166
     20 C17         1.6963   -1.3059    7.9127 C.3       1 <0>        -0.1011
     21 C18         2.3279    1.1277   10.8289 C.3       1 <0>        -0.1509
     22 N3         -0.6408   -2.1412   -2.6651 N.pl3     1 <0>        -0.5841
     23 C19        -0.8274   -1.3082   -3.8637 C.3       1 <0>         0.0707
     24 C20         0.2037   -1.7353   -4.9147 C.3       1 <0>         0.0424
     25 O2          0.1228   -3.1498   -5.1057 O.3       1 <0>        -0.3631
     26 C21         0.4360   -3.9166   -3.9405 C.3       1 <0>         0.0470
     27 C22        -0.5775   -3.6009   -2.8404 C.3       1 <0>         0.0573
     28 H1          0.7319    2.2395    0.0281 H         1 <0>         0.1090
     29 H2         -0.8771    2.3709   -0.7217 H         1 <0>         0.0980
     30 H3         -0.7295    2.1924    1.0431 H         1 <0>         0.0944
     31 H4         -0.5302    0.4463   -2.1794 H         1 <0>         0.1795
     32 H5         -0.1166    1.1661    2.5045 H         1 <0>         0.1587
     33 H6         -0.0867   -2.7957    4.1091 H         1 <0>         0.1605
     34 H7         -0.3159   -3.7499    1.8839 H         1 <0>         0.1549
     35 H8         -0.4023    0.6015    4.9577 H         1 <0>         0.4206
     36 H9         -0.2076   -0.3926    7.4859 H         1 <0>         0.1074
     37 H10         2.3701    1.0363    6.6918 H         1 <0>         0.0714
     38 H11         0.7235    1.6862    6.5060 H         1 <0>         0.0660
     39 H12         1.7952    2.5531    8.5672 H         1 <0>         0.0707
     40 H13         0.3877    1.5362    8.9583 H         1 <0>         0.0677
     41 H14         3.3009    0.6253    8.9737 H         1 <0>         0.0716
     42 H15         2.3698   -1.4535    9.9536 H         1 <0>         0.0709
     43 H16         0.7232   -0.8036    9.7679 H         1 <0>         0.0656
     44 H17         1.2981   -2.3204    7.8924 H         1 <0>         0.0718
     45 H18         2.7057   -1.3035    7.5014 H         1 <0>         0.0722
     46 H19         1.3185    1.1253   11.2402 H         1 <0>         0.0558
     47 H20         2.9651    0.4753   11.4259 H         1 <0>         0.0573
     48 H21         2.7260    2.1422   10.8492 H         1 <0>         0.0564
     49 H22        -1.8337   -1.4514   -4.2573 H         1 <0>         0.1077
     50 H23        -0.6784   -0.2590   -3.6084 H         1 <0>         0.1133
     51 H24        -0.0051   -1.2282   -5.8566 H         1 <0>         0.1271
     52 H25         1.2040   -1.4708   -4.5718 H         1 <0>         0.0673
     53 H26         0.3945   -4.9788   -4.1817 H         1 <0>         0.1264
     54 H27         1.4372   -3.6600   -3.5941 H         1 <0>         0.0661
     55 H28        -0.2630   -4.0693   -1.9077 H         1 <0>         0.0905
     56 H29        -1.5582   -3.9789   -3.1292 H         1 <0>         0.1114
     57 H30        -0.4943   -3.3091   -0.4630 H         1 <0>         0.4336
@<TRIPOS>BOND
     1    1    2 1
     2    1   28 1
     3    1   29 1
     4    1   30 1
     5    2    7 ar
     6    2    3 ar
     7    3    4 ar
     8    3   31 1
     9    4    5 ar
    10    4   22 1
    11    5    6 ar
    12    5   57 1
    13    6   11 ar
    14    6    7 ar
    15    7    8 ar
    16    8    9 ar
    17    8   32 1
    18    9   10 ar
    19    9   12 1
    20   10   11 ar
    21   10   33 1
    22   11   34 1
    23   12   13 am
    24   12   35 1
    25   13   14 2
    26   13   15 1
    27   15   20 1
    28   15   16 1
    29   15   36 1
    30   16   17 1
    31   16   37 1
    32   16   38 1
    33   17   18 1
    34   17   39 1
    35   17   40 1
    36   18   19 1
    37   18   21 1
    38   18   41 1
    39   19   20 1
    40   19   42 1
    41   19   43 1
    42   20   44 1
    43   20   45 1
    44   21   46 1
    45   21   47 1
    46   21   48 1
    47   22   27 1
    48   22   23 1
    49   23   24 1
    50   23   49 1
    51   23   50 1
    52   24   25 1
    53   24   51 1
    54   24   52 1
    55   25   26 1
    56   26   27 1
    57   26   53 1
    58   26   54 1
    59   27   55 1
    60   27   56 1
@<TRIPOS>MOLECULE
CHEMBL176679
   56    56     0     0     0
SMALL
USER_CHARGES

@<TRIPOS>ATOM
      1 C1         -0.0187    1.5258    0.0104 C.3       1 <0>        -0.1554
      2 C2          0.0021   -0.0041    0.0020 C.3       1 <0>        -0.1263
      3 C3          0.7421   -0.5109    1.2415 C.3       1 <0>        -0.1216
      4 C4          0.7628   -2.0407    1.2331 C.3       1 <0>        -0.1217
      5 C5          1.5028   -2.5476    2.4727 C.3       1 <0>        -0.1212
      6 C6          1.5236   -4.0774    2.4642 C.3       1 <0>        -0.1217
      7 C7          2.2636   -4.5842    3.7038 C.3       1 <0>        -0.1210
      8 C8          2.2843   -6.1141    3.6954 C.3       1 <0>        -0.1180
      9 C9          3.0243   -6.6209    4.9349 C.3       1 <0>        -0.1473
     10 C10         3.0450   -8.1508    4.9265 C.3       1 <0>        -0.0146
     11 N1          3.7555   -8.6374    6.1166 N.4       1 <0>        -0.5006
     12 C11         3.7755  -10.1062    6.1085 C.3       1 <0>         0.0872
     13 C12         2.3716  -10.6234    6.2256 C.2       1 <0>        -0.1881
     14 C13         2.0251  -11.6166    6.9799 C.2       1 <0>        -0.0814
     15 C14         2.9770  -12.3830    7.8508 C.3       1 <0>         0.1053
     16 C15         4.4195  -12.1233    7.4110 C.3       1 <0>         0.0922
     17 C16         4.6216  -10.6085    7.2804 C.3       1 <0>         0.0940
     18 O1          4.2047   -9.9630    8.4853 O.3       1 <0>        -0.5620
     19 O2          4.6571  -12.7502    6.1490 O.3       1 <0>        -0.5543
     20 O3          2.6943  -13.7799    7.7468 O.3       1 <0>        -0.5540
     21 C17         0.5755  -12.0287    6.9841 C.3       1 <0>         0.0945
     22 O4         -0.1623  -11.1840    6.0985 O.3       1 <0>        -0.5731
     23 H1          1.0039    1.9031    0.0027 H         1 <0>         0.0538
     24 H2         -0.5459    1.8868   -0.8726 H         1 <0>         0.0554
     25 H3         -0.5289    1.8773    0.9072 H         1 <0>         0.0538
     26 H4         -1.0205   -0.3814    0.0098 H         1 <0>         0.0606
     27 H5          0.5123   -0.3556   -0.8948 H         1 <0>         0.0607
     28 H6          1.7647   -0.1336    1.2338 H         1 <0>         0.0610
     29 H7          0.2319   -0.1594    2.1383 H         1 <0>         0.0610
     30 H8         -0.2598   -2.4180    1.2409 H         1 <0>         0.0614
     31 H9          1.2730   -2.3923    0.3363 H         1 <0>         0.0614
     32 H10         2.5254   -2.1703    2.4649 H         1 <0>         0.0617
     33 H11         0.9926   -2.1961    3.3695 H         1 <0>         0.0617
     34 H12         0.5010   -4.4547    2.4720 H         1 <0>         0.0634
     35 H13         2.0337   -4.4289    1.5675 H         1 <0>         0.0635
     36 H14         3.2861   -4.2070    3.6960 H         1 <0>         0.0656
     37 H15         1.7534   -4.2327    4.6006 H         1 <0>         0.0656
     38 H16         1.2617   -6.4914    3.7031 H         1 <0>         0.0739
     39 H17         2.7945   -6.4656    2.7986 H         1 <0>         0.0738
     40 H18         4.0469   -6.2436    4.9271 H         1 <0>         0.0866
     41 H19         2.5141   -6.2694    5.8317 H         1 <0>         0.0867
     42 H20         2.0224   -8.5280    4.9342 H         1 <0>         0.1339
     43 H21         3.5552   -8.5023    4.0297 H         1 <0>         0.1317
     44 H22         4.7021   -8.2881    6.1094 H         1 <0>         0.4272
     45 H23         4.2105  -10.4565    5.1725 H         1 <0>         0.1625
     46 H24         1.6024  -10.1364    5.6445 H         1 <0>         0.1491
     47 H25         2.8528  -12.0675    8.8867 H         1 <0>         0.0918
     48 H26         5.1073  -12.5218    8.1567 H         1 <0>         0.0908
     49 H27         5.6734  -10.3940    7.0913 H         1 <0>         0.1031
     50 H28         4.7006  -10.2357    9.2694 H         1 <0>         0.4108
     51 H29         4.5308  -13.7089    6.1561 H         1 <0>         0.4062
     52 H30         1.7986  -14.0213    8.0199 H         1 <0>         0.3930
     53 H31         0.4911  -13.0638    6.6534 H         1 <0>         0.0746
     54 H32         0.1743  -11.9357    7.9933 H         1 <0>         0.0719
     55 H33        -1.1054  -11.3924    6.0510 H         1 <0>         0.3977
     56 H34         3.2833   -8.3120    6.9467 H         1 <0>         0.4334
@<TRIPOS>BOND
     1    1    2 1
     2    1   23 1
     3    1   24 1
     4    1   25 1
     5    2    3 1
     6    2   26 1
     7    2   27 1
     8    3    4 1
     9    3   28 1
    10    3   29 1
    11    4    5 1
    12    4   30 1
    13    4   31 1
    14    5    6 1
    15    5   32 1
    16    5   33 1
    17    6    7 1
    18    6   34 1
    19    6   35 1
    20    7    8 1
    21    7   36 1
    22    7   37 1
    23    8    9 1
    24    8   38 1
    25    8   39 1
    26    9   10 1
    27    9   40 1
    28    9   41 1
    29   10   11 1
    30   10   42 1
    31   10   43 1
    32   11   12 1
    33   11   44 1
    34   11   56 1
    35   12   17 1
    36   12   13 1
    37   12   45 1
    38   13   14 2
    39   13   46 1
    40   14   15 1
    41   14   21 1
    42   15   16 1
    43   15   20 1
    44   15   47 1
    45   16   17 1
    46   16   19 1
    47   16   48 1
    48   17   18 1
    49   17   49 1
    50   18   50 1
    51   19   51 1
    52   20   52 1
    53   21   22 1
    54   21   53 1
    55   21   54 1
    56   22   55 1
@<TRIPOS>MOLECULE
CHEMBL176679__1
   56    56     0     0     0
SMALL
USER_CHARGES

@<TRIPOS>ATOM
      1 C1         -0.0187    1.5258    0.0104 C.3       1 <0>        -0.1554
      2 C2          0.0021   -0.0041    0.0020 C.3       1 <0>        -0.1263
      3 C3          0.7421   -0.5109    1.2415 C.3       1 <0>        -0.1216
      4 C4          0.7628   -2.0407    1.2331 C.3       1 <0>        -0.1218
      5 C5          1.5028   -2.5476    2.4727 C.3       1 <0>        -0.1212
      6 C6          1.5236   -4.0774    2.4642 C.3       1 <0>        -0.1218
      7 C7          2.2636   -4.5842    3.7038 C.3       1 <0>        -0.1210
      8 C8          2.2843   -6.1141    3.6954 C.3       1 <0>        -0.1181
      9 C9          3.0243   -6.6209    4.9349 C.3       1 <0>        -0.1476
     10 C10         3.0450   -8.1508    4.9265 C.3       1 <0>        -0.0135
     11 N1          3.7555   -8.6374    6.1166 N.4       1 <0>        -0.5037
     12 C11         3.7755  -10.1062    6.1085 C.3       1 <0>         0.0840
     13 C12         2.3716  -10.6234    6.2256 C.2       1 <0>        -0.1881
     14 C13         2.0251  -11.6166    6.9799 C.2       1 <0>        -0.0892
     15 C14         2.9770  -12.3830    7.8508 C.3       1 <0>         0.1003
     16 C15         4.4195  -12.1233    7.4110 C.3       1 <0>         0.0929
     17 C16         4.6216  -10.6085    7.2804 C.3       1 <0>         0.0968
     18 O1          6.0006  -10.3274    7.0325 O.3       1 <0>        -0.5541
     19 O2          4.6571  -12.7502    6.1490 O.3       1 <0>        -0.5478
     20 O3          2.6943  -13.7799    7.7468 O.3       1 <0>        -0.5493
     21 C17         0.5755  -12.0287    6.9841 C.3       1 <0>         0.0943
     22 O4         -0.1623  -11.1840    6.0985 O.3       1 <0>        -0.5733
     23 H1          1.0039    1.9031    0.0027 H         1 <0>         0.0539
     24 H2         -0.5459    1.8868   -0.8726 H         1 <0>         0.0554
     25 H3         -0.5289    1.8773    0.9072 H         1 <0>         0.0538
     26 H4         -1.0205   -0.3814    0.0098 H         1 <0>         0.0606
     27 H5          0.5123   -0.3556   -0.8948 H         1 <0>         0.0608
     28 H6          1.7647   -0.1336    1.2338 H         1 <0>         0.0611
     29 H7          0.2319   -0.1594    2.1383 H         1 <0>         0.0609
     30 H8         -0.2598   -2.4180    1.2409 H         1 <0>         0.0613
     31 H9          1.2730   -2.3923    0.3363 H         1 <0>         0.0615
     32 H10         2.5254   -2.1703    2.4649 H         1 <0>         0.0618
     33 H11         0.9926   -2.1961    3.3695 H         1 <0>         0.0616
     34 H12         0.5010   -4.4547    2.4720 H         1 <0>         0.0634
     35 H13         2.0337   -4.4289    1.5675 H         1 <0>         0.0636
     36 H14         3.2861   -4.2070    3.6960 H         1 <0>         0.0658
     37 H15         1.7534   -4.2327    4.6006 H         1 <0>         0.0654
     38 H16         1.2617   -6.4914    3.7031 H         1 <0>         0.0739
     39 H17         2.7945   -6.4656    2.7986 H         1 <0>         0.0742
     40 H18         4.0469   -6.2436    4.9271 H         1 <0>         0.0873
     41 H19         2.5141   -6.2694    5.8317 H         1 <0>         0.0864
     42 H20         2.0224   -8.5280    4.9342 H         1 <0>         0.1341
     43 H21         3.5552   -8.5023    4.0297 H         1 <0>         0.1328
     44 H22         4.7021   -8.2881    6.1094 H         1 <0>         0.4348
     45 H23         4.2105  -10.4565    5.1725 H         1 <0>         0.1619
     46 H24         1.6024  -10.1364    5.6445 H         1 <0>         0.1555
     47 H25         2.8528  -12.0675    8.8867 H         1 <0>         0.0904
     48 H26         5.1073  -12.5218    8.1567 H         1 <0>         0.0917
     49 H27         4.3036  -10.1161    8.1994 H         1 <0>         0.0958
     50 H28         6.5945  -10.6199    7.7373 H         1 <0>         0.4078
     51 H29         4.5308  -13.7089    6.1561 H         1 <0>         0.4014
     52 H30         1.7986  -14.0213    8.0199 H         1 <0>         0.3938
     53 H31         0.4911  -13.0638    6.6534 H         1 <0>         0.0767
     54 H32         0.1743  -11.9357    7.9933 H         1 <0>         0.0735
     55 H33        -1.1054  -11.3924    6.0510 H         1 <0>         0.3990
     56 H34         3.2833   -8.3120    6.9467 H         1 <0>         0.4235
@<TRIPOS>BOND
     1    1    2 1
     2    1   23 1
     3    1   24 1
     4    1   25 1
     5    2    3 1
     6    2   26 1
     7    2   27 1
     8    3    4 1
     9    3   28 1
    10    3   29 1
    11    4    5 1
    12    4   30 1
    13    4   31 1
    14    5    6 1
    15    5   32 1
    16    5   33 1
    17    6    7 1
    18    6   34 1
    19    6   35 1
    20    7    8 1
    21    7   36 1
    22    7   37 1
    23    8    9 1
    24    8   38 1
    25    8   39 1
    26    9   10 1
    27    9   40 1
    28    9   41 1
    29   10   11 1
    30   10   42 1
    31   10   43 1
    32   11   12 1
    33   11   44 1
    34   11   56 1
    35   12   17 1
    36   12   13 1
    37   12   45 1
    38   13   14 2
    39   13   46 1
    40   14   15 1
    41   14   21 1
    42   15   16 1
    43   15   20 1
    44   15   47 1
    45   16   17 1
    46   16   19 1
    47   16   48 1
    48   17   18 1
    49   17   49 1
    50   18   50 1
    51   19   51 1
    52   20   52 1
    53   21   22 1
    54   21   53 1
    55   21   54 1
    56   22   55 1
@<TRIPOS>MOLECULE
CHEMBL176679__2
   56    56     0     0     0
SMALL
USER_CHARGES

@<TRIPOS>ATOM
      1 C1         -0.0187    1.5258    0.0104 C.3       1 <0>        -0.1555
      2 C2          0.0021   -0.0041    0.0020 C.3       1 <0>        -0.1262
      3 C3          0.7421   -0.5109    1.2415 C.3       1 <0>        -0.1216
      4 C4          0.7628   -2.0407    1.2331 C.3       1 <0>        -0.1217
      5 C5          1.5028   -2.5476    2.4727 C.3       1 <0>        -0.1213
      6 C6          1.5236   -4.0774    2.4642 C.3       1 <0>        -0.1216
      7 C7          2.2636   -4.5842    3.7038 C.3       1 <0>        -0.1213
      8 C8          2.2843   -6.1141    3.6954 C.3       1 <0>        -0.1178
      9 C9          3.0243   -6.6209    4.9349 C.3       1 <0>        -0.1477
     10 C10         3.0450   -8.1508    4.9265 C.3       1 <0>        -0.0149
     11 N1          3.7555   -8.6374    6.1166 N.4       1 <0>        -0.4977
     12 C11         3.7755  -10.1062    6.1085 C.3       1 <0>         0.0830
     13 C12         2.3716  -10.6234    6.2256 C.2       1 <0>        -0.2012
     14 C13         2.0251  -11.6166    6.9799 C.2       1 <0>        -0.0770
     15 C14         2.9772  -12.3836    7.8501 C.3       1 <0>         0.1045
     16 C15         4.4196  -12.1236    7.4101 C.3       1 <0>         0.0919
     17 C16         4.6216  -10.6085    7.2804 C.3       1 <0>         0.0955
     18 O1          4.2047   -9.9630    8.4853 O.3       1 <0>        -0.5666
     19 O2          5.3215  -12.6467    8.3873 O.3       1 <0>        -0.5549
     20 O3          2.6944  -13.7804    7.7451 O.3       1 <0>        -0.5541
     21 C17         0.5755  -12.0287    6.9841 C.3       1 <0>         0.0935
     22 O4         -0.1623  -11.1840    6.0985 O.3       1 <0>        -0.5732
     23 H1          1.0039    1.9031    0.0027 H         1 <0>         0.0539
     24 H2         -0.5459    1.8868   -0.8726 H         1 <0>         0.0554
     25 H3         -0.5289    1.8773    0.9072 H         1 <0>         0.0538
     26 H4         -1.0205   -0.3814    0.0098 H         1 <0>         0.0606
     27 H5          0.5123   -0.3556   -0.8948 H         1 <0>         0.0607
     28 H6          1.7647   -0.1336    1.2338 H         1 <0>         0.0611
     29 H7          0.2319   -0.1594    2.1383 H         1 <0>         0.0610
     30 H8         -0.2598   -2.4180    1.2409 H         1 <0>         0.0614
     31 H9          1.2730   -2.3923    0.3363 H         1 <0>         0.0614
     32 H10         2.5254   -2.1703    2.4649 H         1 <0>         0.0617
     33 H11         0.9926   -2.1961    3.3695 H         1 <0>         0.0618
     34 H12         0.5010   -4.4547    2.4720 H         1 <0>         0.0634
     35 H13         2.0337   -4.4289    1.5675 H         1 <0>         0.0634
     36 H14         3.2861   -4.2070    3.6960 H         1 <0>         0.0658
     37 H15         1.7534   -4.2327    4.6006 H         1 <0>         0.0658
     38 H16         1.2617   -6.4914    3.7031 H         1 <0>         0.0740
     39 H17         2.7945   -6.4656    2.7986 H         1 <0>         0.0737
     40 H18         4.0469   -6.2436    4.9271 H         1 <0>         0.0872
     41 H19         2.5141   -6.2694    5.8317 H         1 <0>         0.0874
     42 H20         2.0224   -8.5280    4.9342 H         1 <0>         0.1348
     43 H21         3.5552   -8.5023    4.0297 H         1 <0>         0.1322
     44 H22         4.7021   -8.2881    6.1094 H         1 <0>         0.4288
     45 H23         4.2105  -10.4565    5.1725 H         1 <0>         0.1584
     46 H24         1.6024  -10.1364    5.6445 H         1 <0>         0.1531
     47 H25         2.8532  -12.0688    8.8863 H         1 <0>         0.0953
     48 H26         4.6006  -12.6011    6.4471 H         1 <0>         0.0870
     49 H27         5.6734  -10.3940    7.0913 H         1 <0>         0.1034
     50 H28         4.7006  -10.2357    9.2694 H         1 <0>         0.4155
     51 H29         5.2361  -13.5990    8.5315 H         1 <0>         0.4059
     52 H30         1.7988  -14.0220    8.0182 H         1 <0>         0.3918
     53 H31         0.4911  -13.0638    6.6534 H         1 <0>         0.0767
     54 H32         0.1743  -11.9357    7.9933 H         1 <0>         0.0746
     55 H33        -1.1054  -11.3924    6.0510 H         1 <0>         0.3989
     56 H34         3.2833   -8.3120    6.9467 H         1 <0>         0.4360
@<TRIPOS>BOND
     1    1    2 1
     2    1   23 1
     3    1   24 1
     4    1   25 1
     5    2    3 1
     6    2   26 1
     7    2   27 1
     8    3    4 1
     9    3   28 1
    10    3   29 1
    11    4    5 1
    12    4   30 1
    13    4   31 1
    14    5    6 1
    15    5   32 1
    16    5   33 1
    17    6    7 1
    18    6   34 1
    19    6   35 1
    20    7    8 1
    21    7   36 1
    22    7   37 1
    23    8    9 1
    24    8   38 1
    25    8   39 1
    26    9   10 1
    27    9   40 1
    28    9   41 1
    29   10   11 1
    30   10   42 1
    31   10   43 1
    32   11   12 1
    33   11   44 1
    34   11   56 1
    35   12   17 1
    36   12   13 1
    37   12   45 1
    38   13   14 2
    39   13   46 1
    40   14   15 1
    41   14   21 1
    42   15   16 1
    43   15   20 1
    44   15   47 1
    45   16   17 1
    46   16   19 1
    47   16   48 1
    48   17   18 1
    49   17   49 1
    50   18   50 1
    51   19   51 1
    52   20   52 1
    53   21   22 1
    54   21   53 1
    55   21   54 1
    56   22   55 1
@<TRIPOS>MOLECULE
CHEMBL176679__3
   56    56     0     0     0
SMALL
USER_CHARGES

@<TRIPOS>ATOM
      1 C1         -0.0187    1.5258    0.0104 C.3       1 <0>        -0.1555
      2 C2          0.0021   -0.0041    0.0020 C.3       1 <0>        -0.1263
      3 C3          0.7421   -0.5109    1.2415 C.3       1 <0>        -0.1216
      4 C4          0.7628   -2.0407    1.2331 C.3       1 <0>        -0.1217
      5 C5          1.5028   -2.5476    2.4727 C.3       1 <0>        -0.1213
      6 C6          1.5236   -4.0774    2.4642 C.3       1 <0>        -0.1217
      7 C7          2.2636   -4.5842    3.7038 C.3       1 <0>        -0.1212
      8 C8          2.2843   -6.1141    3.6954 C.3       1 <0>        -0.1178
      9 C9          3.0243   -6.6209    4.9349 C.3       1 <0>        -0.1480
     10 C10         3.0450   -8.1508    4.9265 C.3       1 <0>        -0.0139
     11 N1          3.7555   -8.6374    6.1166 N.4       1 <0>        -0.5008
     12 C11         3.7755  -10.1062    6.1085 C.3       1 <0>         0.0808
     13 C12         2.3716  -10.6234    6.2256 C.2       1 <0>        -0.2010
     14 C13         2.0251  -11.6166    6.9799 C.2       1 <0>        -0.0849
     15 C14         2.9770  -12.3830    7.8508 C.3       1 <0>         0.0990
     16 C15         4.4195  -12.1233    7.4110 C.3       1 <0>         0.0943
     17 C16         4.6216  -10.6085    7.2804 C.3       1 <0>         0.0982
     18 O1          6.0006  -10.3274    7.0325 O.3       1 <0>        -0.5577
     19 O2          5.3212  -12.6457    8.3887 O.3       1 <0>        -0.5545
     20 O3          2.6943  -13.7799    7.7468 O.3       1 <0>        -0.5494
     21 C17         0.5755  -12.0287    6.9841 C.3       1 <0>         0.0933
     22 O4         -0.1623  -11.1840    6.0985 O.3       1 <0>        -0.5734
     23 H1          1.0039    1.9031    0.0027 H         1 <0>         0.0539
     24 H2         -0.5459    1.8868   -0.8726 H         1 <0>         0.0554
     25 H3         -0.5289    1.8773    0.9072 H         1 <0>         0.0538
     26 H4         -1.0205   -0.3814    0.0098 H         1 <0>         0.0606
     27 H5          0.5123   -0.3556   -0.8948 H         1 <0>         0.0607
     28 H6          1.7647   -0.1336    1.2338 H         1 <0>         0.0611
     29 H7          0.2319   -0.1594    2.1383 H         1 <0>         0.0610
     30 H8         -0.2598   -2.4180    1.2409 H         1 <0>         0.0613
     31 H9          1.2730   -2.3923    0.3363 H         1 <0>         0.0615
     32 H10         2.5254   -2.1703    2.4649 H         1 <0>         0.0618
     33 H11         0.9926   -2.1961    3.3695 H         1 <0>         0.0616
     34 H12         0.5010   -4.4547    2.4720 H         1 <0>         0.0634
     35 H13         2.0337   -4.4289    1.5675 H         1 <0>         0.0636
     36 H14         3.2861   -4.2070    3.6960 H         1 <0>         0.0660
     37 H15         1.7534   -4.2327    4.6006 H         1 <0>         0.0657
     38 H16         1.2617   -6.4914    3.7031 H         1 <0>         0.0741
     39 H17         2.7945   -6.4656    2.7986 H         1 <0>         0.0741
     40 H18         4.0469   -6.2436    4.9271 H         1 <0>         0.0879
     41 H19         2.5141   -6.2694    5.8317 H         1 <0>         0.0871
     42 H20         2.0224   -8.5280    4.9342 H         1 <0>         0.1351
     43 H21         3.5552   -8.5023    4.0297 H         1 <0>         0.1334
     44 H22         4.7021   -8.2881    6.1094 H         1 <0>         0.4364
     45 H23         4.2105  -10.4565    5.1725 H         1 <0>         0.1571
     46 H24         1.6024  -10.1364    5.6445 H         1 <0>         0.1594
     47 H25         2.8528  -12.0675    8.8867 H         1 <0>         0.0937
     48 H26         4.6007  -12.6015    6.4484 H         1 <0>         0.0877
     49 H27         4.3036  -10.1161    8.1994 H         1 <0>         0.0900
     50 H28         6.5945  -10.6199    7.7373 H         1 <0>         0.4161
     51 H29         5.2358  -13.5979    8.5336 H         1 <0>         0.4071
     52 H30         1.7986  -14.0213    8.0199 H         1 <0>         0.3928
     53 H31         0.4911  -13.0638    6.6534 H         1 <0>         0.0789
     54 H32         0.1743  -11.9357    7.9933 H         1 <0>         0.0762
     55 H33        -1.1054  -11.3924    6.0510 H         1 <0>         0.4002
     56 H34         3.2833   -8.3120    6.9467 H         1 <0>         0.4262
@<TRIPOS>BOND
     1    1    2 1
     2    1   23 1
     3    1   24 1
     4    1   25 1
     5    2    3 1
     6    2   26 1
     7    2   27 1
     8    3    4 1
     9    3   28 1
    10    3   29 1
    11    4    5 1
    12    4   30 1
    13    4   31 1
    14    5    6 1
    15    5   32 1
    16    5   33 1
    17    6    7 1
    18    6   34 1
    19    6   35 1
    20    7    8 1
    21    7   36 1
    22    7   37 1
    23    8    9 1
    24    8   38 1
    25    8   39 1
    26    9   10 1
    27    9   40 1
    28    9   41 1
    29   10   11 1
    30   10   42 1
    31   10   43 1
    32   11   12 1
    33   11   44 1
    34   11   56 1
    35   12   17 1
    36   12   13 1
    37   12   45 1
    38   13   14 2
    39   13   46 1
    40   14   15 1
    41   14   21 1
    42   15   16 1
    43   15   20 1
    44   15   47 1
    45   16   17 1
    46   16   19 1
    47   16   48 1
    48   17   18 1
    49   17   49 1
    50   18   50 1
    51   19   51 1
    52   20   52 1
    53   21   22 1
    54   21   53 1
    55   21   54 1
    56   22   55 1
@<TRIPOS>MOLECULE
CHEMBL176679__4
   56    56     0     0     0
SMALL
USER_CHARGES

@<TRIPOS>ATOM
      1 C1         -0.0187    1.5258    0.0104 C.3       1 <0>        -0.1554
      2 C2          0.0021   -0.0041    0.0020 C.3       1 <0>        -0.1263
      3 C3          0.7421   -0.5109    1.2415 C.3       1 <0>        -0.1216
      4 C4          0.7628   -2.0407    1.2331 C.3       1 <0>        -0.1217
      5 C5          1.5028   -2.5476    2.4727 C.3       1 <0>        -0.1213
      6 C6          1.5236   -4.0774    2.4642 C.3       1 <0>        -0.1216
      7 C7          2.2636   -4.5842    3.7038 C.3       1 <0>        -0.1211
      8 C8          2.2843   -6.1141    3.6954 C.3       1 <0>        -0.1178
      9 C9          3.0243   -6.6209    4.9349 C.3       1 <0>        -0.1474
     10 C10         3.0450   -8.1508    4.9265 C.3       1 <0>        -0.0145
     11 N1          3.7555   -8.6374    6.1166 N.4       1 <0>        -0.4999
     12 C11         3.7755  -10.1062    6.1085 C.3       1 <0>         0.0855
     13 C12         2.3716  -10.6234    6.2256 C.2       1 <0>        -0.1756
     14 C13         2.0251  -11.6166    6.9799 C.2       1 <0>        -0.0893
     15 C14         2.9772  -12.3836    7.8501 C.3       1 <0>         0.1100
     16 C15         4.4196  -12.1236    7.4101 C.3       1 <0>         0.0858
     17 C16         4.6216  -10.6085    7.2804 C.3       1 <0>         0.0972
     18 O1          4.2047   -9.9630    8.4853 O.3       1 <0>        -0.5478
     19 O2          4.6569  -12.7496    6.1477 O.3       1 <0>        -0.5522
     20 O3          2.8146  -11.9709    9.2085 O.3       1 <0>        -0.5396
     21 C17         0.5755  -12.0287    6.9841 C.3       1 <0>         0.0976
     22 O4         -0.1623  -11.1840    6.0985 O.3       1 <0>        -0.5743
     23 H1          1.0039    1.9031    0.0027 H         1 <0>         0.0538
     24 H2         -0.5459    1.8868   -0.8726 H         1 <0>         0.0554
     25 H3         -0.5289    1.8773    0.9072 H         1 <0>         0.0538
     26 H4         -1.0205   -0.3814    0.0098 H         1 <0>         0.0606
     27 H5          0.5123   -0.3556   -0.8948 H         1 <0>         0.0607
     28 H6          1.7647   -0.1336    1.2338 H         1 <0>         0.0610
     29 H7          0.2319   -0.1594    2.1383 H         1 <0>         0.0610
     30 H8         -0.2598   -2.4180    1.2409 H         1 <0>         0.0613
     31 H9          1.2730   -2.3923    0.3363 H         1 <0>         0.0614
     32 H10         2.5254   -2.1703    2.4649 H         1 <0>         0.0617
     33 H11         0.9926   -2.1961    3.3695 H         1 <0>         0.0617
     34 H12         0.5010   -4.4547    2.4720 H         1 <0>         0.0633
     35 H13         2.0337   -4.4289    1.5675 H         1 <0>         0.0634
     36 H14         3.2861   -4.2070    3.6960 H         1 <0>         0.0657
     37 H15         1.7534   -4.2327    4.6006 H         1 <0>         0.0657
     38 H16         1.2617   -6.4914    3.7031 H         1 <0>         0.0737
     39 H17         2.7945   -6.4656    2.7986 H         1 <0>         0.0736
     40 H18         4.0469   -6.2436    4.9271 H         1 <0>         0.0867
     41 H19         2.5141   -6.2694    5.8317 H         1 <0>         0.0868
     42 H20         2.0224   -8.5280    4.9342 H         1 <0>         0.1332
     43 H21         3.5552   -8.5023    4.0297 H         1 <0>         0.1312
     44 H22         4.7021   -8.2881    6.1094 H         1 <0>         0.4272
     45 H23         4.2105  -10.4565    5.1725 H         1 <0>         0.1600
     46 H24         1.6024  -10.1364    5.6445 H         1 <0>         0.1479
     47 H25         2.7615  -13.4491    7.7700 H         1 <0>         0.0787
     48 H26         5.1076  -12.5226    8.1555 H         1 <0>         0.0940
     49 H27         5.6734  -10.3940    7.0913 H         1 <0>         0.0947
     50 H28         4.7006  -10.2357    9.2694 H         1 <0>         0.4100
     51 H29         4.5306  -13.7083    6.1541 H         1 <0>         0.3998
     52 H30         1.9254  -12.1158    9.5599 H         1 <0>         0.3898
     53 H31         0.4911  -13.0638    6.6534 H         1 <0>         0.0716
     54 H32         0.1743  -11.9357    7.9933 H         1 <0>         0.0701
     55 H33        -1.1054  -11.3924    6.0510 H         1 <0>         0.3974
     56 H34         3.2833   -8.3120    6.9467 H         1 <0>         0.4343
@<TRIPOS>BOND
     1    1    2 1
     2    1   23 1
     3    1   24 1
     4    1   25 1
     5    2    3 1
     6    2   26 1
     7    2   27 1
     8    3    4 1
     9    3   28 1
    10    3   29 1
    11    4    5 1
    12    4   30 1
    13    4   31 1
    14    5    6 1
    15    5   32 1
    16    5   33 1
    17    6    7 1
    18    6   34 1
    19    6   35 1
    20    7    8 1
    21    7   36 1
    22    7   37 1
    23    8    9 1
    24    8   38 1
    25    8   39 1
    26    9   10 1
    27    9   40 1
    28    9   41 1
    29   10   11 1
    30   10   42 1
    31   10   43 1
    32   11   12 1
    33   11   44 1
    34   11   56 1
    35   12   17 1
    36   12   13 1
    37   12   45 1
    38   13   14 2
    39   13   46 1
    40   14   15 1
    41   14   21 1
    42   15   16 1
    43   15   20 1
    44   15   47 1
    45   16   17 1
    46   16   19 1
    47   16   48 1
    48   17   18 1
    49   17   49 1
    50   18   50 1
    51   19   51 1
    52   20   52 1
    53   21   22 1
    54   21   53 1
    55   21   54 1
    56   22   55 1
@<TRIPOS>MOLECULE
CHEMBL176679__5
   56    56     0     0     0
SMALL
USER_CHARGES

@<TRIPOS>ATOM
      1 C1         -0.0187    1.5258    0.0104 C.3       1 <0>        -0.1554
      2 C2          0.0021   -0.0041    0.0020 C.3       1 <0>        -0.1263
      3 C3          0.7421   -0.5109    1.2415 C.3       1 <0>        -0.1216
      4 C4          0.7628   -2.0407    1.2331 C.3       1 <0>        -0.1217
      5 C5          1.5028   -2.5476    2.4727 C.3       1 <0>        -0.1212
      6 C6          1.5236   -4.0774    2.4642 C.3       1 <0>        -0.1217
      7 C7          2.2636   -4.5842    3.7038 C.3       1 <0>        -0.1211
      8 C8          2.2843   -6.1141    3.6954 C.3       1 <0>        -0.1178
      9 C9          3.0243   -6.6209    4.9349 C.3       1 <0>        -0.1478
     10 C10         3.0450   -8.1508    4.9265 C.3       1 <0>        -0.0136
     11 N1          3.7555   -8.6374    6.1166 N.4       1 <0>        -0.5032
     12 C11         3.7755  -10.1062    6.1085 C.3       1 <0>         0.0822
     13 C12         2.3716  -10.6234    6.2256 C.2       1 <0>        -0.1761
     14 C13         2.0251  -11.6166    6.9799 C.2       1 <0>        -0.0960
     15 C14         2.9770  -12.3830    7.8508 C.3       1 <0>         0.1012
     16 C15         4.4195  -12.1233    7.4110 C.3       1 <0>         0.0900
     17 C16         4.6216  -10.6085    7.2804 C.3       1 <0>         0.0993
     18 O1          6.0006  -10.3274    7.0325 O.3       1 <0>        -0.5594
     19 O2          4.6571  -12.7502    6.1490 O.3       1 <0>        -0.5456
     20 O3          2.8142  -11.9694    9.2089 O.3       1 <0>        -0.5489
     21 C17         0.5755  -12.0287    6.9841 C.3       1 <0>         0.0975
     22 O4         -0.1623  -11.1840    6.0985 O.3       1 <0>        -0.5744
     23 H1          1.0039    1.9031    0.0027 H         1 <0>         0.0539
     24 H2         -0.5459    1.8868   -0.8726 H         1 <0>         0.0554
     25 H3         -0.5289    1.8773    0.9072 H         1 <0>         0.0538
     26 H4         -1.0205   -0.3814    0.0098 H         1 <0>         0.0606
     27 H5          0.5123   -0.3556   -0.8948 H         1 <0>         0.0607
     28 H6          1.7647   -0.1336    1.2338 H         1 <0>         0.0611
     29 H7          0.2319   -0.1594    2.1383 H         1 <0>         0.0609
     30 H8         -0.2598   -2.4180    1.2409 H         1 <0>         0.0613
     31 H9          1.2730   -2.3923    0.3363 H         1 <0>         0.0615
     32 H10         2.5254   -2.1703    2.4649 H         1 <0>         0.0618
     33 H11         0.9926   -2.1961    3.3695 H         1 <0>         0.0616
     34 H12         0.5010   -4.4547    2.4720 H         1 <0>         0.0633
     35 H13         2.0337   -4.4289    1.5675 H         1 <0>         0.0636
     36 H14         3.2861   -4.2070    3.6960 H         1 <0>         0.0659
     37 H15         1.7534   -4.2327    4.6006 H         1 <0>         0.0655
     38 H16         1.2617   -6.4914    3.7031 H         1 <0>         0.0738
     39 H17         2.7945   -6.4656    2.7986 H         1 <0>         0.0740
     40 H18         4.0469   -6.2436    4.9271 H         1 <0>         0.0874
     41 H19         2.5141   -6.2694    5.8317 H         1 <0>         0.0866
     42 H20         2.0224   -8.5280    4.9342 H         1 <0>         0.1337
     43 H21         3.5552   -8.5023    4.0297 H         1 <0>         0.1326
     44 H22         4.7021   -8.2881    6.1094 H         1 <0>         0.4350
     45 H23         4.2105  -10.4565    5.1725 H         1 <0>         0.1609
     46 H24         1.6024  -10.1364    5.6445 H         1 <0>         0.1549
     47 H25         2.7614  -13.4485    7.7715 H         1 <0>         0.0870
     48 H26         5.1073  -12.5218    8.1567 H         1 <0>         0.0958
     49 H27         4.3036  -10.1161    8.1994 H         1 <0>         0.1019
     50 H28         6.5945  -10.6199    7.7373 H         1 <0>         0.4074
     51 H29         4.5308  -13.7089    6.1561 H         1 <0>         0.3956
     52 H30         1.9249  -12.1140    9.5602 H         1 <0>         0.3944
     53 H31         0.4911  -13.0638    6.6534 H         1 <0>         0.0744
     54 H32         0.1743  -11.9357    7.9933 H         1 <0>         0.0718
     55 H33        -1.1054  -11.3924    6.0510 H         1 <0>         0.3990
     56 H34         3.2833   -8.3120    6.9467 H         1 <0>         0.4246
@<TRIPOS>BOND
     1    1    2 1
     2    1   23 1
     3    1   24 1
     4    1   25 1
     5    2    3 1
     6    2   26 1
     7    2   27 1
     8    3    4 1
     9    3   28 1
    10    3   29 1
    11    4    5 1
    12    4   30 1
    13    4   31 1
    14    5    6 1
    15    5   32 1
    16    5   33 1
    17    6    7 1
    18    6   34 1
    19    6   35 1
    20    7    8 1
    21    7   36 1
    22    7   37 1
    23    8    9 1
    24    8   38 1
    25    8   39 1
    26    9   10 1
    27    9   40 1
    28    9   41 1
    29   10   11 1
    30   10   42 1
    31   10   43 1
    32   11   12 1
    33   11   44 1
    34   11   56 1
    35   12   17 1
    36   12   13 1
    37   12   45 1
    38   13   14 2
    39   13   46 1
    40   14   15 1
    41   14   21 1
    42   15   16 1
    43   15   20 1
    44   15   47 1
    45   16   17 1
    46   16   19 1
    47   16   48 1
    48   17   18 1
    49   17   49 1
    50   18   50 1
    51   19   51 1
    52   20   52 1
    53   21   22 1
    54   21   53 1
    55   21   54 1
    56   22   55 1
@<TRIPOS>MOLECULE
CHEMBL176679__6
   56    56     0     0     0
SMALL
USER_CHARGES

@<TRIPOS>ATOM
      1 C1         -0.0187    1.5258    0.0104 C.3       1 <0>        -0.1555
      2 C2          0.0021   -0.0041    0.0020 C.3       1 <0>        -0.1262
      3 C3          0.7421   -0.5109    1.2415 C.3       1 <0>        -0.1217
      4 C4          0.7628   -2.0407    1.2331 C.3       1 <0>        -0.1216
      5 C5          1.5028   -2.5476    2.4727 C.3       1 <0>        -0.1214
      6 C6          1.5236   -4.0774    2.4642 C.3       1 <0>        -0.1215
      7 C7          2.2636   -4.5842    3.7038 C.3       1 <0>        -0.1214
      8 C8          2.2843   -6.1141    3.6954 C.3       1 <0>        -0.1175
      9 C9          3.0243   -6.6209    4.9349 C.3       1 <0>        -0.1479
     10 C10         3.0450   -8.1508    4.9265 C.3       1 <0>        -0.0146
     11 N1          3.7555   -8.6374    6.1166 N.4       1 <0>        -0.4970
     12 C11         3.7755  -10.1062    6.1085 C.3       1 <0>         0.0816
     13 C12         2.3716  -10.6234    6.2256 C.2       1 <0>        -0.1889
     14 C13         2.0251  -11.6166    6.9799 C.2       1 <0>        -0.0847
     15 C14         2.9770  -12.3830    7.8508 C.3       1 <0>         0.1076
     16 C15         4.4195  -12.1233    7.4110 C.3       1 <0>         0.0884
     17 C16         4.6216  -10.6085    7.2804 C.3       1 <0>         0.0949
     18 O1          4.2047   -9.9630    8.4853 O.3       1 <0>        -0.5529
     19 O2          5.3212  -12.6457    8.3887 O.3       1 <0>        -0.5453
     20 O3          2.8142  -11.9694    9.2089 O.3       1 <0>        -0.5289
     21 C17         0.5755  -12.0287    6.9841 C.3       1 <0>         0.0967
     22 O4         -0.1623  -11.1840    6.0985 O.3       1 <0>        -0.5747
     23 H1          1.0039    1.9031    0.0027 H         1 <0>         0.0539
     24 H2         -0.5459    1.8868   -0.8726 H         1 <0>         0.0554
     25 H3         -0.5289    1.8773    0.9072 H         1 <0>         0.0538
     26 H4         -1.0205   -0.3814    0.0098 H         1 <0>         0.0606
     27 H5          0.5123   -0.3556   -0.8948 H         1 <0>         0.0606
     28 H6          1.7647   -0.1336    1.2338 H         1 <0>         0.0611
     29 H7          0.2319   -0.1594    2.1383 H         1 <0>         0.0611
     30 H8         -0.2598   -2.4180    1.2409 H         1 <0>         0.0613
     31 H9          1.2730   -2.3923    0.3363 H         1 <0>         0.0613
     32 H10         2.5254   -2.1703    2.4649 H         1 <0>         0.0618
     33 H11         0.9926   -2.1961    3.3695 H         1 <0>         0.0618
     34 H12         0.5010   -4.4547    2.4720 H         1 <0>         0.0634
     35 H13         2.0337   -4.4289    1.5675 H         1 <0>         0.0633
     36 H14         3.2861   -4.2070    3.6960 H         1 <0>         0.0658
     37 H15         1.7534   -4.2327    4.6006 H         1 <0>         0.0659
     38 H16         1.2617   -6.4914    3.7031 H         1 <0>         0.0738
     39 H17         2.7945   -6.4656    2.7986 H         1 <0>         0.0735
     40 H18         4.0469   -6.2436    4.9271 H         1 <0>         0.0871
     41 H19         2.5141   -6.2694    5.8317 H         1 <0>         0.0874
     42 H20         2.0224   -8.5280    4.9342 H         1 <0>         0.1341
     43 H21         3.5552   -8.5023    4.0297 H         1 <0>         0.1316
     44 H22         4.7021   -8.2881    6.1094 H         1 <0>         0.4286
     45 H23         4.2105  -10.4565    5.1725 H         1 <0>         0.1556
     46 H24         1.6024  -10.1364    5.6445 H         1 <0>         0.1512
     47 H25         2.7614  -13.4485    7.7715 H         1 <0>         0.0785
     48 H26         4.6007  -12.6015    6.4484 H         1 <0>         0.0882
     49 H27         5.6734  -10.3940    7.0913 H         1 <0>         0.0940
     50 H28         4.7006  -10.2357    9.2694 H         1 <0>         0.4145
     51 H29         5.2358  -13.5979    8.5336 H         1 <0>         0.3981
     52 H30         1.9249  -12.1140    9.5602 H         1 <0>         0.3839
     53 H31         0.4911  -13.0638    6.6534 H         1 <0>         0.0736
     54 H32         0.1743  -11.9357    7.9933 H         1 <0>         0.0725
     55 H33        -1.1054  -11.3924    6.0510 H         1 <0>         0.3984
     56 H34         3.2833   -8.3120    6.9467 H         1 <0>         0.4368
@<TRIPOS>BOND
     1    1    2 1
     2    1   23 1
     3    1   24 1
     4    1   25 1
     5    2    3 1
     6    2   26 1
     7    2   27 1
     8    3    4 1
     9    3   28 1
    10    3   29 1
    11    4    5 1
    12    4   30 1
    13    4   31 1
    14    5    6 1
    15    5   32 1
    16    5   33 1
    17    6    7 1
    18    6   34 1
    19    6   35 1
    20    7    8 1
    21    7   36 1
    22    7   37 1
    23    8    9 1
    24    8   38 1
    25    8   39 1
    26    9   10 1
    27    9   40 1
    28    9   41 1
    29   10   11 1
    30   10   42 1
    31   10   43 1
    32   11   12 1
    33   11   44 1
    34   11   56 1
    35   12   17 1
    36   12   13 1
    37   12   45 1
    38   13   14 2
    39   13   46 1
    40   14   15 1
    41   14   21 1
    42   15   16 1
    43   15   20 1
    44   15   47 1
    45   16   17 1
    46   16   19 1
    47   16   48 1
    48   17   18 1
    49   17   49 1
    50   18   50 1
    51   19   51 1
    52   20   52 1
    53   21   22 1
    54   21   53 1
    55   21   54 1
    56   22   55 1
@<TRIPOS>MOLECULE
CHEMBL176679__7
   56    56     0     0     0
SMALL
USER_CHARGES

@<TRIPOS>ATOM
      1 C1         -0.0187    1.5258    0.0104 C.3       1 <0>        -0.1555
      2 C2          0.0021   -0.0041    0.0020 C.3       1 <0>        -0.1262
      3 C3          0.7421   -0.5109    1.2415 C.3       1 <0>        -0.1217
      4 C4          0.7628   -2.0407    1.2331 C.3       1 <0>        -0.1216
      5 C5          1.5028   -2.5476    2.4727 C.3       1 <0>        -0.1214
      6 C6          1.5236   -4.0774    2.4642 C.3       1 <0>        -0.1216
      7 C7          2.2636   -4.5842    3.7038 C.3       1 <0>        -0.1213
      8 C8          2.2843   -6.1141    3.6954 C.3       1 <0>        -0.1176
      9 C9          3.0243   -6.6209    4.9349 C.3       1 <0>        -0.1483
     10 C10         3.0450   -8.1508    4.9265 C.3       1 <0>        -0.0139
     11 N1          3.7555   -8.6374    6.1166 N.4       1 <0>        -0.5004
     12 C11         3.7755  -10.1062    6.1085 C.3       1 <0>         0.0796
     13 C12         2.3716  -10.6234    6.2256 C.2       1 <0>        -0.1892
     14 C13         2.0251  -11.6166    6.9799 C.2       1 <0>        -0.0914
     15 C14         2.9770  -12.3830    7.8508 C.3       1 <0>         0.0976
     16 C15         4.4195  -12.1233    7.4110 C.3       1 <0>         0.0946
     17 C16         4.6216  -10.6085    7.2804 C.3       1 <0>         0.0958
     18 O1          6.0006  -10.3274    7.0325 O.3       1 <0>        -0.5633
     19 O2          5.3212  -12.6457    8.3887 O.3       1 <0>        -0.5445
     20 O3          2.8142  -11.9694    9.2089 O.3       1 <0>        -0.5388
     21 C17         0.5755  -12.0287    6.9841 C.3       1 <0>         0.0965
     22 O4         -0.1623  -11.1840    6.0985 O.3       1 <0>        -0.5747
     23 H1          1.0039    1.9031    0.0027 H         1 <0>         0.0539
     24 H2         -0.5459    1.8868   -0.8726 H         1 <0>         0.0554
     25 H3         -0.5289    1.8773    0.9072 H         1 <0>         0.0538
     26 H4         -1.0205   -0.3814    0.0098 H         1 <0>         0.0606
     27 H5          0.5123   -0.3556   -0.8948 H         1 <0>         0.0607
     28 H6          1.7647   -0.1336    1.2338 H         1 <0>         0.0611
     29 H7          0.2319   -0.1594    2.1383 H         1 <0>         0.0610
     30 H8         -0.2598   -2.4180    1.2409 H         1 <0>         0.0613
     31 H9          1.2730   -2.3923    0.3363 H         1 <0>         0.0614
     32 H10         2.5254   -2.1703    2.4649 H         1 <0>         0.0619
     33 H11         0.9926   -2.1961    3.3695 H         1 <0>         0.0617
     34 H12         0.5010   -4.4547    2.4720 H         1 <0>         0.0633
     35 H13         2.0337   -4.4289    1.5675 H         1 <0>         0.0635
     36 H14         3.2861   -4.2070    3.6960 H         1 <0>         0.0660
     37 H15         1.7534   -4.2327    4.6006 H         1 <0>         0.0657
     38 H16         1.2617   -6.4914    3.7031 H         1 <0>         0.0739
     39 H17         2.7945   -6.4656    2.7986 H         1 <0>         0.0740
     40 H18         4.0469   -6.2436    4.9271 H         1 <0>         0.0880
     41 H19         2.5141   -6.2694    5.8317 H         1 <0>         0.0872
     42 H20         2.0224   -8.5280    4.9342 H         1 <0>         0.1345
     43 H21         3.5552   -8.5023    4.0297 H         1 <0>         0.1331
     44 H22         4.7021   -8.2881    6.1094 H         1 <0>         0.4364
     45 H23         4.2105  -10.4565    5.1725 H         1 <0>         0.1557
     46 H24         1.6024  -10.1364    5.6445 H         1 <0>         0.1583
     47 H25         2.7614  -13.4485    7.7715 H         1 <0>         0.0871
     48 H26         4.6007  -12.6015    6.4484 H         1 <0>         0.0903
     49 H27         4.3036  -10.1161    8.1994 H         1 <0>         0.0962
     50 H28         6.5945  -10.6199    7.7373 H         1 <0>         0.4154
     51 H29         5.2358  -13.5979    8.5336 H         1 <0>         0.3995
     52 H30         1.9249  -12.1140    9.5602 H         1 <0>         0.3888
     53 H31         0.4911  -13.0638    6.6534 H         1 <0>         0.0764
     54 H32         0.1743  -11.9357    7.9933 H         1 <0>         0.0742
     55 H33        -1.1054  -11.3924    6.0510 H         1 <0>         0.3999
     56 H34         3.2833   -8.3120    6.9467 H         1 <0>         0.4271
@<TRIPOS>BOND
     1    1    2 1
     2    1   23 1
     3    1   24 1
     4    1   25 1
     5    2    3 1
     6    2   26 1
     7    2   27 1
     8    3    4 1
     9    3   28 1
    10    3   29 1
    11    4    5 1
    12    4   30 1
    13    4   31 1
    14    5    6 1
    15    5   32 1
    16    5   33 1
    17    6    7 1
    18    6   34 1
    19    6   35 1
    20    7    8 1
    21    7   36 1
    22    7   37 1
    23    8    9 1
    24    8   38 1
    25    8   39 1
    26    9   10 1
    27    9   40 1
    28    9   41 1
    29   10   11 1
    30   10   42 1
    31   10   43 1
    32   11   12 1
    33   11   44 1
    34   11   56 1
    35   12   17 1
    36   12   13 1
    37   12   45 1
    38   13   14 2
    39   13   46 1
    40   14   15 1
    41   14   21 1
    42   15   16 1
    43   15   20 1
    44   15   47 1
    45   16   17 1
    46   16   19 1
    47   16   48 1
    48   17   18 1
    49   17   49 1
    50   18   50 1
    51   19   51 1
    52   20   52 1
    53   21   22 1
    54   21   53 1
    55   21   54 1
    56   22   55 1
@<TRIPOS>MOLECULE
CHEMBL176679__8
   56    56     0     0     0
SMALL
USER_CHARGES

@<TRIPOS>ATOM
      1 C1         -0.0187    1.5258    0.0104 C.3       1 <0>        -0.1555
      2 C2          0.0021   -0.0041    0.0020 C.3       1 <0>        -0.1262
      3 C3          0.7421   -0.5109    1.2415 C.3       1 <0>        -0.1217
      4 C4          0.7628   -2.0407    1.2331 C.3       1 <0>        -0.1216
      5 C5          1.5028   -2.5476    2.4727 C.3       1 <0>        -0.1214
      6 C6          1.5236   -4.0774    2.4642 C.3       1 <0>        -0.1216
      7 C7          2.2636   -4.5842    3.7038 C.3       1 <0>        -0.1213
      8 C8          2.2843   -6.1141    3.6954 C.3       1 <0>        -0.1176
      9 C9          3.0243   -6.6209    4.9349 C.3       1 <0>        -0.1483
     10 C10         3.0450   -8.1508    4.9265 C.3       1 <0>        -0.0139
     11 N1          3.7555   -8.6374    6.1166 N.4       1 <0>        -0.5004
     12 C11         3.7755  -10.1062    6.1085 C.3       1 <0>         0.0796
     13 C12         4.5690  -10.5865    4.9288 C.2       1 <0>        -0.1892
     14 C13         5.4213  -11.5595    4.9757 C.2       1 <0>        -0.0913
     15 C14         5.7428  -12.3365    6.2186 C.3       1 <0>         0.0976
     16 C15         4.6545  -12.1194    7.2722 C.3       1 <0>         0.0945
     17 C16         4.4049  -10.6121    7.4083 C.3       1 <0>         0.0957
     18 O1          3.5147  -10.3691    8.4995 O.3       1 <0>        -0.5633
     19 O2          5.0876  -12.6496    8.5266 O.3       1 <0>        -0.5445
     20 O3          6.9998  -11.8990    6.7389 O.3       1 <0>        -0.5388
     21 C17         6.1356  -11.9352    3.7030 C.3       1 <0>         0.0965
     22 O4          5.6959  -11.0856    2.6414 O.3       1 <0>        -0.5747
     23 H1          1.0039    1.9031    0.0027 H         1 <0>         0.0538
     24 H2         -0.5459    1.8868   -0.8726 H         1 <0>         0.0554
     25 H3         -0.5289    1.8773    0.9072 H         1 <0>         0.0539
     26 H4         -1.0205   -0.3814    0.0098 H         1 <0>         0.0607
     27 H5          0.5123   -0.3556   -0.8948 H         1 <0>         0.0606
     28 H6          1.7647   -0.1336    1.2338 H         1 <0>         0.0610
     29 H7          0.2319   -0.1594    2.1383 H         1 <0>         0.0611
     30 H8         -0.2598   -2.4180    1.2409 H         1 <0>         0.0614
     31 H9          1.2730   -2.3923    0.3363 H         1 <0>         0.0613
     32 H10         2.5254   -2.1703    2.4649 H         1 <0>         0.0617
     33 H11         0.9926   -2.1961    3.3695 H         1 <0>         0.0619
     34 H12         0.5010   -4.4547    2.4720 H         1 <0>         0.0635
     35 H13         2.0337   -4.4289    1.5675 H         1 <0>         0.0633
     36 H14         3.2861   -4.2070    3.6960 H         1 <0>         0.0657
     37 H15         1.7534   -4.2327    4.6006 H         1 <0>         0.0661
     38 H16         1.2617   -6.4914    3.7031 H         1 <0>         0.0740
     39 H17         2.7945   -6.4656    2.7986 H         1 <0>         0.0739
     40 H18         4.0469   -6.2436    4.9271 H         1 <0>         0.0872
     41 H19         2.5141   -6.2694    5.8317 H         1 <0>         0.0879
     42 H20         2.0224   -8.5280    4.9342 H         1 <0>         0.1331
     43 H21         3.5552   -8.5023    4.0297 H         1 <0>         0.1345
     44 H22         4.7021   -8.2881    6.1094 H         1 <0>         0.4271
     45 H23         2.7548  -10.4810    6.0315 H         1 <0>         0.1557
     46 H24         4.4194  -10.0895    3.9817 H         1 <0>         0.1583
     47 H25         5.8041  -13.3974    5.9759 H         1 <0>         0.0872
     48 H26         3.7364  -12.6160    6.9584 H         1 <0>         0.0903
     49 H27         5.3506  -10.0986    7.5816 H         1 <0>         0.0962
     50 H28         3.8519  -10.6660    9.3558 H         1 <0>         0.4154
     51 H29         5.2794  -13.5972    8.5078 H         1 <0>         0.3995
     52 H30         7.7405  -12.0162    6.1283 H         1 <0>         0.3888
     53 H31         7.2104  -11.8175    3.8412 H         1 <0>         0.0742
     54 H32         5.9128  -12.9727    3.4540 H         1 <0>         0.0764
     55 H33         6.1151  -11.2710    1.7900 H         1 <0>         0.4000
     56 H34         3.2833   -8.3120    6.9467 H         1 <0>         0.4364
@<TRIPOS>BOND
     1    1    2 1
     2    1   23 1
     3    1   24 1
     4    1   25 1
     5    2    3 1
     6    2   26 1
     7    2   27 1
     8    3    4 1
     9    3   28 1
    10    3   29 1
    11    4    5 1
    12    4   30 1
    13    4   31 1
    14    5    6 1
    15    5   32 1
    16    5   33 1
    17    6    7 1
    18    6   34 1
    19    6   35 1
    20    7    8 1
    21    7   36 1
    22    7   37 1
    23    8    9 1
    24    8   38 1
    25    8   39 1
    26    9   10 1
    27    9   40 1
    28    9   41 1
    29   10   11 1
    30   10   42 1
    31   10   43 1
    32   11   12 1
    33   11   44 1
    34   11   56 1
    35   12   17 1
    36   12   13 1
    37   12   45 1
    38   13   14 2
    39   13   46 1
    40   14   15 1
    41   14   21 1
    42   15   16 1
    43   15   20 1
    44   15   47 1
    45   16   17 1
    46   16   19 1
    47   16   48 1
    48   17   18 1
    49   17   49 1
    50   18   50 1
    51   19   51 1
    52   20   52 1
    53   21   22 1
    54   21   53 1
    55   21   54 1
    56   22   55 1
@<TRIPOS>MOLECULE
CHEMBL176679__9
   56    56     0     0     0
SMALL
USER_CHARGES

@<TRIPOS>ATOM
      1 C1         -0.0187    1.5258    0.0104 C.3       1 <0>        -0.1555
      2 C2          0.0021   -0.0041    0.0020 C.3       1 <0>        -0.1262
      3 C3          0.7421   -0.5109    1.2415 C.3       1 <0>        -0.1217
      4 C4          0.7628   -2.0407    1.2331 C.3       1 <0>        -0.1216
      5 C5          1.5028   -2.5476    2.4727 C.3       1 <0>        -0.1214
      6 C6          1.5236   -4.0774    2.4642 C.3       1 <0>        -0.1215
      7 C7          2.2636   -4.5842    3.7038 C.3       1 <0>        -0.1214
      8 C8          2.2843   -6.1141    3.6954 C.3       1 <0>        -0.1175
      9 C9          3.0243   -6.6209    4.9349 C.3       1 <0>        -0.1479
     10 C10         3.0450   -8.1508    4.9265 C.3       1 <0>        -0.0146
     11 N1          3.7555   -8.6374    6.1166 N.4       1 <0>        -0.4970
     12 C11         3.7755  -10.1062    6.1085 C.3       1 <0>         0.0816
     13 C12         4.5690  -10.5865    4.9288 C.2       1 <0>        -0.1888
     14 C13         5.4213  -11.5595    4.9757 C.2       1 <0>        -0.0847
     15 C14         5.7428  -12.3365    6.2186 C.3       1 <0>         0.1076
     16 C15         4.6545  -12.1194    7.2722 C.3       1 <0>         0.0883
     17 C16         4.4049  -10.6121    7.4083 C.3       1 <0>         0.0949
     18 O1          5.6447   -9.9388    7.6355 O.3       1 <0>        -0.5528
     19 O2          5.0876  -12.6496    8.5266 O.3       1 <0>        -0.5453
     20 O3          6.9998  -11.8990    6.7389 O.3       1 <0>        -0.5289
     21 C17         6.1356  -11.9352    3.7030 C.3       1 <0>         0.0967
     22 O4          5.6959  -11.0856    2.6414 O.3       1 <0>        -0.5747
     23 H1          1.0039    1.9031    0.0027 H         1 <0>         0.0539
     24 H2         -0.5459    1.8868   -0.8726 H         1 <0>         0.0554
     25 H3         -0.5289    1.8773    0.9072 H         1 <0>         0.0539
     26 H4         -1.0205   -0.3814    0.0098 H         1 <0>         0.0606
     27 H5          0.5123   -0.3556   -0.8948 H         1 <0>         0.0606
     28 H6          1.7647   -0.1336    1.2338 H         1 <0>         0.0611
     29 H7          0.2319   -0.1594    2.1383 H         1 <0>         0.0611
     30 H8         -0.2598   -2.4180    1.2409 H         1 <0>         0.0613
     31 H9          1.2730   -2.3923    0.3363 H         1 <0>         0.0613
     32 H10         2.5254   -2.1703    2.4649 H         1 <0>         0.0618
     33 H11         0.9926   -2.1961    3.3695 H         1 <0>         0.0618
     34 H12         0.5010   -4.4547    2.4720 H         1 <0>         0.0633
     35 H13         2.0337   -4.4289    1.5675 H         1 <0>         0.0634
     36 H14         3.2861   -4.2070    3.6960 H         1 <0>         0.0659
     37 H15         1.7534   -4.2327    4.6006 H         1 <0>         0.0658
     38 H16         1.2617   -6.4914    3.7031 H         1 <0>         0.0735
     39 H17         2.7945   -6.4656    2.7986 H         1 <0>         0.0738
     40 H18         4.0469   -6.2436    4.9271 H         1 <0>         0.0874
     41 H19         2.5141   -6.2694    5.8317 H         1 <0>         0.0871
     42 H20         2.0224   -8.5280    4.9342 H         1 <0>         0.1316
     43 H21         3.5552   -8.5023    4.0297 H         1 <0>         0.1341
     44 H22         4.7021   -8.2881    6.1094 H         1 <0>         0.4368
     45 H23         2.7548  -10.4810    6.0315 H         1 <0>         0.1556
     46 H24         4.4194  -10.0895    3.9817 H         1 <0>         0.1512
     47 H25         5.8041  -13.3974    5.9759 H         1 <0>         0.0785
     48 H26         3.7364  -12.6160    6.9584 H         1 <0>         0.0882
     49 H27         3.7259  -10.4268    8.2406 H         1 <0>         0.0940
     50 H28         6.0982  -10.2122    8.4446 H         1 <0>         0.4145
     51 H29         5.2794  -13.5972    8.5078 H         1 <0>         0.3981
     52 H30         7.7405  -12.0162    6.1283 H         1 <0>         0.3839
     53 H31         7.2104  -11.8175    3.8412 H         1 <0>         0.0725
     54 H32         5.9128  -12.9727    3.4540 H         1 <0>         0.0735
     55 H33         6.1151  -11.2710    1.7900 H         1 <0>         0.3984
     56 H34         3.2833   -8.3120    6.9467 H         1 <0>         0.4285
@<TRIPOS>BOND
     1    1    2 1
     2    1   23 1
     3    1   24 1
     4    1   25 1
     5    2    3 1
     6    2   26 1
     7    2   27 1
     8    3    4 1
     9    3   28 1
    10    3   29 1
    11    4    5 1
    12    4   30 1
    13    4   31 1
    14    5    6 1
    15    5   32 1
    16    5   33 1
    17    6    7 1
    18    6   34 1
    19    6   35 1
    20    7    8 1
    21    7   36 1
    22    7   37 1
    23    8    9 1
    24    8   38 1
    25    8   39 1
    26    9   10 1
    27    9   40 1
    28    9   41 1
    29   10   11 1
    30   10   42 1
    31   10   43 1
    32   11   12 1
    33   11   44 1
    34   11   56 1
    35   12   17 1
    36   12   13 1
    37   12   45 1
    38   13   14 2
    39   13   46 1
    40   14   15 1
    41   14   21 1
    42   15   16 1
    43   15   20 1
    44   15   47 1
    45   16   17 1
    46   16   19 1
    47   16   48 1
    48   17   18 1
    49   17   49 1
    50   18   50 1
    51   19   51 1
    52   20   52 1
    53   21   22 1
    54   21   53 1
    55   21   54 1
    56   22   55 1
@<TRIPOS>MOLECULE
CHEMBL176679__10
   56    56     0     0     0
SMALL
USER_CHARGES

@<TRIPOS>ATOM
      1 C1         -0.0187    1.5258    0.0104 C.3       1 <0>        -0.1555
      2 C2          0.0021   -0.0041    0.0020 C.3       1 <0>        -0.1263
      3 C3          0.7421   -0.5109    1.2415 C.3       1 <0>        -0.1216
      4 C4          0.7628   -2.0407    1.2331 C.3       1 <0>        -0.1217
      5 C5          1.5028   -2.5476    2.4727 C.3       1 <0>        -0.1213
      6 C6          1.5236   -4.0774    2.4642 C.3       1 <0>        -0.1217
      7 C7          2.2636   -4.5842    3.7038 C.3       1 <0>        -0.1212
      8 C8          2.2843   -6.1141    3.6954 C.3       1 <0>        -0.1177
      9 C9          3.0243   -6.6209    4.9349 C.3       1 <0>        -0.1488
     10 C10         3.0450   -8.1508    4.9265 C.3       1 <0>        -0.0101
     11 N1          3.7555   -8.6374    6.1166 N.4       1 <0>        -0.5037
     12 C11         3.7755  -10.1062    6.1085 C.3       1 <0>         0.0741
     13 C12         4.5690  -10.5865    4.9288 C.2       1 <0>        -0.1941
     14 C13         5.7791  -11.0398    5.0047 C.2       1 <0>        -0.0767
     15 C14         6.5538  -11.1583    6.2845 C.3       1 <0>         0.1013
     16 C15         5.9063  -10.3006    7.3739 C.3       1 <0>         0.0790
     17 C16         4.4049  -10.6121    7.4083 C.3       1 <0>         0.1016
     18 O1          4.2099  -12.0234    7.5190 O.3       1 <0>        -0.5379
     19 O2          6.4905  -10.6114    8.6405 O.3       1 <0>        -0.5494
     20 O3          7.8955  -10.7165    6.0687 O.3       1 <0>        -0.5559
     21 C17         6.4516  -11.4761    3.7286 C.3       1 <0>         0.0926
     22 O4          5.5574  -11.2869    2.6302 O.3       1 <0>        -0.5709
     23 H1          1.0039    1.9031    0.0027 H         1 <0>         0.0538
     24 H2         -0.5459    1.8868   -0.8726 H         1 <0>         0.0555
     25 H3         -0.5289    1.8773    0.9072 H         1 <0>         0.0539
     26 H4         -1.0205   -0.3814    0.0098 H         1 <0>         0.0608
     27 H5          0.5123   -0.3556   -0.8948 H         1 <0>         0.0607
     28 H6          1.7647   -0.1336    1.2338 H         1 <0>         0.0610
     29 H7          0.2319   -0.1594    2.1383 H         1 <0>         0.0611
     30 H8         -0.2598   -2.4180    1.2409 H         1 <0>         0.0615
     31 H9          1.2730   -2.3923    0.3363 H         1 <0>         0.0614
     32 H10         2.5254   -2.1703    2.4649 H         1 <0>         0.0616
     33 H11         0.9926   -2.1961    3.3695 H         1 <0>         0.0618
     34 H12         0.5010   -4.4547    2.4720 H         1 <0>         0.0637
     35 H13         2.0337   -4.4289    1.5675 H         1 <0>         0.0635
     36 H14         3.2861   -4.2070    3.6960 H         1 <0>         0.0656
     37 H15         1.7534   -4.2327    4.6006 H         1 <0>         0.0660
     38 H16         1.2617   -6.4914    3.7031 H         1 <0>         0.0747
     39 H17         2.7945   -6.4656    2.7986 H         1 <0>         0.0744
     40 H18         4.0469   -6.2436    4.9271 H         1 <0>         0.0866
     41 H19         2.5141   -6.2694    5.8317 H         1 <0>         0.0879
     42 H20         2.0224   -8.5280    4.9342 H         1 <0>         0.1353
     43 H21         3.5552   -8.5023    4.0297 H         1 <0>         0.1365
     44 H22         4.7021   -8.2881    6.1094 H         1 <0>         0.4241
     45 H23         2.7548  -10.4810    6.0315 H         1 <0>         0.1630
     46 H24         4.1012  -10.5520    3.9560 H         1 <0>         0.1556
     47 H25         6.5657  -12.2003    6.6044 H         1 <0>         0.1010
     48 H26         6.0565   -9.2452    7.1469 H         1 <0>         0.0679
     49 H27         3.9454  -10.1079    8.2584 H         1 <0>         0.0968
     50 H28         4.5851  -12.4106    8.3217 H         1 <0>         0.4102
     51 H29         7.4434  -10.4531    8.6836 H         1 <0>         0.4054
     52 H30         8.3730  -11.2224    5.3970 H         1 <0>         0.3942
     53 H31         7.3517  -10.8820    3.5708 H         1 <0>         0.0766
     54 H32         6.7199  -12.5300    3.8013 H         1 <0>         0.0756
     55 H33         5.9248  -11.5475    1.7745 H         1 <0>         0.3992
     56 H34         3.2833   -8.3120    6.9467 H         1 <0>         0.4291
@<TRIPOS>BOND
     1    1    2 1
     2    1   23 1
     3    1   24 1
     4    1   25 1
     5    2    3 1
     6    2   26 1
     7    2   27 1
     8    3    4 1
     9    3   28 1
    10    3   29 1
    11    4    5 1
    12    4   30 1
    13    4   31 1
    14    5    6 1
    15    5   32 1
    16    5   33 1
    17    6    7 1
    18    6   34 1
    19    6   35 1
    20    7    8 1
    21    7   36 1
    22    7   37 1
    23    8    9 1
    24    8   38 1
    25    8   39 1
    26    9   10 1
    27    9   40 1
    28    9   41 1
    29   10   11 1
    30   10   42 1
    31   10   43 1
    32   11   12 1
    33   11   44 1
    34   11   56 1
    35   12   17 1
    36   12   13 1
    37   12   45 1
    38   13   14 2
    39   13   46 1
    40   14   15 1
    41   14   21 1
    42   15   16 1
    43   15   20 1
    44   15   47 1
    45   16   17 1
    46   16   19 1
    47   16   48 1
    48   17   18 1
    49   17   49 1
    50   18   50 1
    51   19   51 1
    52   20   52 1
    53   21   22 1
    54   21   53 1
    55   21   54 1
    56   22   55 1
@<TRIPOS>MOLECULE
CHEMBL176679__11
   56    56     0     0     0
SMALL
USER_CHARGES

@<TRIPOS>ATOM
      1 C1         -0.0187    1.5258    0.0104 C.3       1 <0>        -0.1554
      2 C2          0.0021   -0.0041    0.0020 C.3       1 <0>        -0.1263
      3 C3          0.7421   -0.5109    1.2415 C.3       1 <0>        -0.1216
      4 C4          0.7628   -2.0407    1.2331 C.3       1 <0>        -0.1217
      5 C5          1.5028   -2.5476    2.4727 C.3       1 <0>        -0.1213
      6 C6          1.5236   -4.0774    2.4642 C.3       1 <0>        -0.1216
      7 C7          2.2636   -4.5842    3.7038 C.3       1 <0>        -0.1211
      8 C8          2.2843   -6.1141    3.6954 C.3       1 <0>        -0.1178
      9 C9          3.0243   -6.6209    4.9349 C.3       1 <0>        -0.1474
     10 C10         3.0450   -8.1508    4.9265 C.3       1 <0>        -0.0145
     11 N1          3.7555   -8.6374    6.1166 N.4       1 <0>        -0.4999
     12 C11         3.7755  -10.1062    6.1085 C.3       1 <0>         0.0855
     13 C12         4.5690  -10.5865    4.9288 C.2       1 <0>        -0.1755
     14 C13         5.4213  -11.5595    4.9757 C.2       1 <0>        -0.0893
     15 C14         5.7421  -12.3371    6.2184 C.3       1 <0>         0.1099
     16 C15         4.6538  -12.1197    7.2719 C.3       1 <0>         0.0857
     17 C16         4.4049  -10.6121    7.4083 C.3       1 <0>         0.0972
     18 O1          5.6447   -9.9388    7.6355 O.3       1 <0>        -0.5478
     19 O2          3.4498  -12.7699    6.8600 O.3       1 <0>        -0.5522
     20 O3          6.9993  -11.9006    6.7391 O.3       1 <0>        -0.5396
     21 C17         6.1356  -11.9352    3.7030 C.3       1 <0>         0.0976
     22 O4          5.6959  -11.0856    2.6414 O.3       1 <0>        -0.5743
     23 H1          1.0039    1.9031    0.0027 H         1 <0>         0.0538
     24 H2         -0.5459    1.8868   -0.8726 H         1 <0>         0.0554
     25 H3         -0.5289    1.8773    0.9072 H         1 <0>         0.0538
     26 H4         -1.0205   -0.3814    0.0098 H         1 <0>         0.0607
     27 H5          0.5123   -0.3556   -0.8948 H         1 <0>         0.0606
     28 H6          1.7647   -0.1336    1.2338 H         1 <0>         0.0610
     29 H7          0.2319   -0.1594    2.1383 H         1 <0>         0.0610
     30 H8         -0.2598   -2.4180    1.2409 H         1 <0>         0.0614
     31 H9          1.2730   -2.3923    0.3363 H         1 <0>         0.0613
     32 H10         2.5254   -2.1703    2.4649 H         1 <0>         0.0617
     33 H11         0.9926   -2.1961    3.3695 H         1 <0>         0.0617
     34 H12         0.5010   -4.4547    2.4720 H         1 <0>         0.0634
     35 H13         2.0337   -4.4289    1.5675 H         1 <0>         0.0634
     36 H14         3.2861   -4.2070    3.6960 H         1 <0>         0.0657
     37 H15         1.7534   -4.2327    4.6006 H         1 <0>         0.0657
     38 H16         1.2617   -6.4914    3.7031 H         1 <0>         0.0736
     39 H17         2.7945   -6.4656    2.7986 H         1 <0>         0.0737
     40 H18         4.0469   -6.2436    4.9271 H         1 <0>         0.0868
     41 H19         2.5141   -6.2694    5.8317 H         1 <0>         0.0867
     42 H20         2.0224   -8.5280    4.9342 H         1 <0>         0.1312
     43 H21         3.5552   -8.5023    4.0297 H         1 <0>         0.1332
     44 H22         4.7021   -8.2881    6.1094 H         1 <0>         0.4344
     45 H23         2.7548  -10.4810    6.0315 H         1 <0>         0.1600
     46 H24         4.4194  -10.0895    3.9817 H         1 <0>         0.1479
     47 H25         5.8028  -13.3980    5.9753 H         1 <0>         0.0787
     48 H26         4.9837  -12.5247    8.2286 H         1 <0>         0.0940
     49 H27         3.7259  -10.4268    8.2406 H         1 <0>         0.0947
     50 H28         6.0982  -10.2122    8.4446 H         1 <0>         0.4100
     51 H29         3.5403  -13.7250    6.7385 H         1 <0>         0.3998
     52 H30         7.7400  -12.0181    6.1286 H         1 <0>         0.3898
     53 H31         7.2104  -11.8175    3.8412 H         1 <0>         0.0701
     54 H32         5.9128  -12.9727    3.4540 H         1 <0>         0.0716
     55 H33         6.1151  -11.2710    1.7900 H         1 <0>         0.3974
     56 H34         3.2833   -8.3120    6.9467 H         1 <0>         0.4272
@<TRIPOS>BOND
     1    1    2 1
     2    1   23 1
     3    1   24 1
     4    1   25 1
     5    2    3 1
     6    2   26 1
     7    2   27 1
     8    3    4 1
     9    3   28 1
    10    3   29 1
    11    4    5 1
    12    4   30 1
    13    4   31 1
    14    5    6 1
    15    5   32 1
    16    5   33 1
    17    6    7 1
    18    6   34 1
    19    6   35 1
    20    7    8 1
    21    7   36 1
    22    7   37 1
    23    8    9 1
    24    8   38 1
    25    8   39 1
    26    9   10 1
    27    9   40 1
    28    9   41 1
    29   10   11 1
    30   10   42 1
    31   10   43 1
    32   11   12 1
    33   11   44 1
    34   11   56 1
    35   12   17 1
    36   12   13 1
    37   12   45 1
    38   13   14 2
    39   13   46 1
    40   14   15 1
    41   14   21 1
    42   15   16 1
    43   15   20 1
    44   15   47 1
    45   16   17 1
    46   16   19 1
    47   16   48 1
    48   17   18 1
    49   17   49 1
    50   18   50 1
    51   19   51 1
    52   20   52 1
    53   21   22 1
    54   21   53 1
    55   21   54 1
    56   22   55 1
@<TRIPOS>MOLECULE
CHEMBL176679__12
   56    56     0     0     0
SMALL
USER_CHARGES

@<TRIPOS>ATOM
      1 C1         -0.0187    1.5258    0.0104 C.3       1 <0>        -0.1555
      2 C2          0.0021   -0.0041    0.0020 C.3       1 <0>        -0.1263
      3 C3          0.7421   -0.5109    1.2415 C.3       1 <0>        -0.1216
      4 C4          0.7628   -2.0407    1.2331 C.3       1 <0>        -0.1217
      5 C5          1.5028   -2.5476    2.4727 C.3       1 <0>        -0.1213
      6 C6          1.5236   -4.0774    2.4642 C.3       1 <0>        -0.1217
      7 C7          2.2636   -4.5842    3.7038 C.3       1 <0>        -0.1212
      8 C8          2.2843   -6.1141    3.6954 C.3       1 <0>        -0.1178
      9 C9          3.0243   -6.6209    4.9349 C.3       1 <0>        -0.1480
     10 C10         3.0450   -8.1508    4.9265 C.3       1 <0>        -0.0139
     11 N1          3.7555   -8.6374    6.1166 N.4       1 <0>        -0.5008
     12 C11         3.7755  -10.1062    6.1085 C.3       1 <0>         0.0807
     13 C12         4.5690  -10.5865    4.9288 C.2       1 <0>        -0.2009
     14 C13         5.4213  -11.5595    4.9757 C.2       1 <0>        -0.0848
     15 C14         5.7421  -12.3371    6.2184 C.3       1 <0>         0.0990
     16 C15         4.6538  -12.1197    7.2719 C.3       1 <0>         0.0943
     17 C16         4.4049  -10.6121    7.4083 C.3       1 <0>         0.0982
     18 O1          3.5147  -10.3691    8.4995 O.3       1 <0>        -0.5577
     19 O2          5.0863  -12.6506    8.5261 O.3       1 <0>        -0.5545
     20 O3          5.8217  -13.7279    5.8997 O.3       1 <0>        -0.5494
     21 C17         6.1356  -11.9352    3.7030 C.3       1 <0>         0.0933
     22 O4          5.6959  -11.0856    2.6414 O.3       1 <0>        -0.5734
     23 H1          1.0039    1.9031    0.0027 H         1 <0>         0.0538
     24 H2         -0.5459    1.8868   -0.8726 H         1 <0>         0.0554
     25 H3         -0.5289    1.8773    0.9072 H         1 <0>         0.0539
     26 H4         -1.0205   -0.3814    0.0098 H         1 <0>         0.0607
     27 H5          0.5123   -0.3556   -0.8948 H         1 <0>         0.0606
     28 H6          1.7647   -0.1336    1.2338 H         1 <0>         0.0610
     29 H7          0.2319   -0.1594    2.1383 H         1 <0>         0.0611
     30 H8         -0.2598   -2.4180    1.2409 H         1 <0>         0.0615
     31 H9          1.2730   -2.3923    0.3363 H         1 <0>         0.0613
     32 H10         2.5254   -2.1703    2.4649 H         1 <0>         0.0616
     33 H11         0.9926   -2.1961    3.3695 H         1 <0>         0.0619
     34 H12         0.5010   -4.4547    2.4720 H         1 <0>         0.0636
     35 H13         2.0337   -4.4289    1.5675 H         1 <0>         0.0634
     36 H14         3.2861   -4.2070    3.6960 H         1 <0>         0.0656
     37 H15         1.7534   -4.2327    4.6006 H         1 <0>         0.0660
     38 H16         1.2617   -6.4914    3.7031 H         1 <0>         0.0742
     39 H17         2.7945   -6.4656    2.7986 H         1 <0>         0.0740
     40 H18         4.0469   -6.2436    4.9271 H         1 <0>         0.0871
     41 H19         2.5141   -6.2694    5.8317 H         1 <0>         0.0879
     42 H20         2.0224   -8.5280    4.9342 H         1 <0>         0.1334
     43 H21         3.5552   -8.5023    4.0297 H         1 <0>         0.1351
     44 H22         4.7021   -8.2881    6.1094 H         1 <0>         0.4262
     45 H23         2.7548  -10.4810    6.0315 H         1 <0>         0.1571
     46 H24         4.4194  -10.0895    3.9817 H         1 <0>         0.1594
     47 H25         6.7010  -12.0042    6.6156 H         1 <0>         0.0937
     48 H26         3.7354  -12.6157    6.9577 H         1 <0>         0.0877
     49 H27         5.3506  -10.0986    7.5816 H         1 <0>         0.0901
     50 H28         3.8519  -10.6660    9.3558 H         1 <0>         0.4162
     51 H29         5.2775  -13.5983    8.5071 H         1 <0>         0.4071
     52 H30         6.4994  -13.9430    5.2443 H         1 <0>         0.3928
     53 H31         7.2104  -11.8175    3.8412 H         1 <0>         0.0762
     54 H32         5.9128  -12.9727    3.4540 H         1 <0>         0.0789
     55 H33         6.1151  -11.2710    1.7900 H         1 <0>         0.4002
     56 H34         3.2833   -8.3120    6.9467 H         1 <0>         0.4364
@<TRIPOS>BOND
     1    1    2 1
     2    1   23 1
     3    1   24 1
     4    1   25 1
     5    2    3 1
     6    2   26 1
     7    2   27 1
     8    3    4 1
     9    3   28 1
    10    3   29 1
    11    4    5 1
    12    4   30 1
    13    4   31 1
    14    5    6 1
    15    5   32 1
    16    5   33 1
    17    6    7 1
    18    6   34 1
    19    6   35 1
    20    7    8 1
    21    7   36 1
    22    7   37 1
    23    8    9 1
    24    8   38 1
    25    8   39 1
    26    9   10 1
    27    9   40 1
    28    9   41 1
    29   10   11 1
    30   10   42 1
    31   10   43 1
    32   11   12 1
    33   11   44 1
    34   11   56 1
    35   12   17 1
    36   12   13 1
    37   12   45 1
    38   13   14 2
    39   13   46 1
    40   14   15 1
    41   14   21 1
    42   15   16 1
    43   15   20 1
    44   15   47 1
    45   16   17 1
    46   16   19 1
    47   16   48 1
    48   17   18 1
    49   17   49 1
    50   18   50 1
    51   19   51 1
    52   20   52 1
    53   21   22 1
    54   21   53 1
    55   21   54 1
    56   22   55 1
@<TRIPOS>MOLECULE
CHEMBL176679__13
   56    56     0     0     0
SMALL
USER_CHARGES

@<TRIPOS>ATOM
      1 C1         -0.0187    1.5258    0.0104 C.3       1 <0>        -0.1555
      2 C2          0.0021   -0.0041    0.0020 C.3       1 <0>        -0.1262
      3 C3          0.7421   -0.5109    1.2415 C.3       1 <0>        -0.1216
      4 C4          0.7628   -2.0407    1.2331 C.3       1 <0>        -0.1217
      5 C5          1.5028   -2.5476    2.4727 C.3       1 <0>        -0.1213
      6 C6          1.5236   -4.0774    2.4642 C.3       1 <0>        -0.1216
      7 C7          2.2636   -4.5842    3.7038 C.3       1 <0>        -0.1213
      8 C8          2.2843   -6.1141    3.6954 C.3       1 <0>        -0.1178
      9 C9          3.0243   -6.6209    4.9349 C.3       1 <0>        -0.1477
     10 C10         3.0450   -8.1508    4.9265 C.3       1 <0>        -0.0149
     11 N1          3.7555   -8.6374    6.1166 N.4       1 <0>        -0.4977
     12 C11         3.7755  -10.1062    6.1085 C.3       1 <0>         0.0829
     13 C12         4.5690  -10.5865    4.9288 C.2       1 <0>        -0.2012
     14 C13         5.4213  -11.5595    4.9757 C.2       1 <0>        -0.0769
     15 C14         5.7428  -12.3365    6.2186 C.3       1 <0>         0.1045
     16 C15         4.6545  -12.1194    7.2722 C.3       1 <0>         0.0919
     17 C16         4.4049  -10.6121    7.4083 C.3       1 <0>         0.0955
     18 O1          5.6447   -9.9388    7.6355 O.3       1 <0>        -0.5666
     19 O2          5.0876  -12.6496    8.5266 O.3       1 <0>        -0.5549
     20 O3          5.8232  -13.7273    5.9004 O.3       1 <0>        -0.5541
     21 C17         6.1356  -11.9352    3.7030 C.3       1 <0>         0.0935
     22 O4          5.6959  -11.0856    2.6414 O.3       1 <0>        -0.5732
     23 H1          1.0039    1.9031    0.0027 H         1 <0>         0.0538
     24 H2         -0.5459    1.8868   -0.8726 H         1 <0>         0.0554
     25 H3         -0.5289    1.8773    0.9072 H         1 <0>         0.0539
     26 H4         -1.0205   -0.3814    0.0098 H         1 <0>         0.0607
     27 H5          0.5123   -0.3556   -0.8948 H         1 <0>         0.0606
     28 H6          1.7647   -0.1336    1.2338 H         1 <0>         0.0610
     29 H7          0.2319   -0.1594    2.1383 H         1 <0>         0.0610
     30 H8         -0.2598   -2.4180    1.2409 H         1 <0>         0.0614
     31 H9          1.2730   -2.3923    0.3363 H         1 <0>         0.0614
     32 H10         2.5254   -2.1703    2.4649 H         1 <0>         0.0617
     33 H11         0.9926   -2.1961    3.3695 H         1 <0>         0.0618
     34 H12         0.5010   -4.4547    2.4720 H         1 <0>         0.0634
     35 H13         2.0337   -4.4289    1.5675 H         1 <0>         0.0634
     36 H14         3.2861   -4.2070    3.6960 H         1 <0>         0.0658
     37 H15         1.7534   -4.2327    4.6006 H         1 <0>         0.0658
     38 H16         1.2617   -6.4914    3.7031 H         1 <0>         0.0737
     39 H17         2.7945   -6.4656    2.7986 H         1 <0>         0.0740
     40 H18         4.0469   -6.2436    4.9271 H         1 <0>         0.0874
     41 H19         2.5141   -6.2694    5.8317 H         1 <0>         0.0872
     42 H20         2.0224   -8.5280    4.9342 H         1 <0>         0.1322
     43 H21         3.5552   -8.5023    4.0297 H         1 <0>         0.1348
     44 H22         4.7021   -8.2881    6.1094 H         1 <0>         0.4360
     45 H23         2.7548  -10.4810    6.0315 H         1 <0>         0.1584
     46 H24         4.4194  -10.0895    3.9817 H         1 <0>         0.1531
     47 H25         6.7016  -12.0028    6.6155 H         1 <0>         0.0953
     48 H26         3.7364  -12.6160    6.9584 H         1 <0>         0.0870
     49 H27         3.7259  -10.4268    8.2406 H         1 <0>         0.1034
     50 H28         6.0982  -10.2122    8.4446 H         1 <0>         0.4155
     51 H29         5.2794  -13.5972    8.5078 H         1 <0>         0.4059
     52 H30         6.5009  -13.9423    5.2450 H         1 <0>         0.3918
     53 H31         7.2104  -11.8175    3.8412 H         1 <0>         0.0746
     54 H32         5.9128  -12.9727    3.4540 H         1 <0>         0.0767
     55 H33         6.1151  -11.2710    1.7900 H         1 <0>         0.3989
     56 H34         3.2833   -8.3120    6.9467 H         1 <0>         0.4287
@<TRIPOS>BOND
     1    1    2 1
     2    1   23 1
     3    1   24 1
     4    1   25 1
     5    2    3 1
     6    2   26 1
     7    2   27 1
     8    3    4 1
     9    3   28 1
    10    3   29 1
    11    4    5 1
    12    4   30 1
    13    4   31 1
    14    5    6 1
    15    5   32 1
    16    5   33 1
    17    6    7 1
    18    6   34 1
    19    6   35 1
    20    7    8 1
    21    7   36 1
    22    7   37 1
    23    8    9 1
    24    8   38 1
    25    8   39 1
    26    9   10 1
    27    9   40 1
    28    9   41 1
    29   10   11 1
    30   10   42 1
    31   10   43 1
    32   11   12 1
    33   11   44 1
    34   11   56 1
    35   12   17 1
    36   12   13 1
    37   12   45 1
    38   13   14 2
    39   13   46 1
    40   14   15 1
    41   14   21 1
    42   15   16 1
    43   15   20 1
    44   15   47 1
    45   16   17 1
    46   16   19 1
    47   16   48 1
    48   17   18 1
    49   17   49 1
    50   18   50 1
    51   19   51 1
    52   20   52 1
    53   21   22 1
    54   21   53 1
    55   21   54 1
    56   22   55 1
@<TRIPOS>MOLECULE
CHEMBL176679__14
   56    56     0     0     0
SMALL
USER_CHARGES

@<TRIPOS>ATOM
      1 C1         -0.0187    1.5258    0.0104 C.3       1 <0>        -0.1554
      2 C2          0.0021   -0.0041    0.0020 C.3       1 <0>        -0.1263
      3 C3          0.7421   -0.5109    1.2415 C.3       1 <0>        -0.1216
      4 C4          0.7628   -2.0407    1.2331 C.3       1 <0>        -0.1218
      5 C5          1.5028   -2.5476    2.4727 C.3       1 <0>        -0.1212
      6 C6          1.5236   -4.0774    2.4642 C.3       1 <0>        -0.1218
      7 C7          2.2636   -4.5842    3.7038 C.3       1 <0>        -0.1210
      8 C8          2.2843   -6.1141    3.6954 C.3       1 <0>        -0.1181
      9 C9          3.0243   -6.6209    4.9349 C.3       1 <0>        -0.1476
     10 C10         3.0450   -8.1508    4.9265 C.3       1 <0>        -0.0135
     11 N1          3.7555   -8.6374    6.1166 N.4       1 <0>        -0.5037
     12 C11         3.7755  -10.1062    6.1085 C.3       1 <0>         0.0839
     13 C12         4.5690  -10.5865    4.9288 C.2       1 <0>        -0.1881
     14 C13         5.4213  -11.5595    4.9757 C.2       1 <0>        -0.0892
     15 C14         5.7428  -12.3365    6.2186 C.3       1 <0>         0.1003
     16 C15         4.6545  -12.1194    7.2722 C.3       1 <0>         0.0929
     17 C16         4.4049  -10.6121    7.4083 C.3       1 <0>         0.0968
     18 O1          3.5147  -10.3691    8.4995 O.3       1 <0>        -0.5541
     19 O2          3.4509  -12.7705    6.8608 O.3       1 <0>        -0.5478
     20 O3          5.8232  -13.7273    5.9004 O.3       1 <0>        -0.5493
     21 C17         6.1356  -11.9352    3.7030 C.3       1 <0>         0.0943
     22 O4          5.6959  -11.0856    2.6414 O.3       1 <0>        -0.5733
     23 H1          1.0039    1.9031    0.0027 H         1 <0>         0.0538
     24 H2         -0.5459    1.8868   -0.8726 H         1 <0>         0.0554
     25 H3         -0.5289    1.8773    0.9072 H         1 <0>         0.0539
     26 H4         -1.0205   -0.3814    0.0098 H         1 <0>         0.0608
     27 H5          0.5123   -0.3556   -0.8948 H         1 <0>         0.0606
     28 H6          1.7647   -0.1336    1.2338 H         1 <0>         0.0609
     29 H7          0.2319   -0.1594    2.1383 H         1 <0>         0.0611
     30 H8         -0.2598   -2.4180    1.2409 H         1 <0>         0.0615
     31 H9          1.2730   -2.3923    0.3363 H         1 <0>         0.0613
     32 H10         2.5254   -2.1703    2.4649 H         1 <0>         0.0615
     33 H11         0.9926   -2.1961    3.3695 H         1 <0>         0.0618
     34 H12         0.5010   -4.4547    2.4720 H         1 <0>         0.0636
     35 H13         2.0337   -4.4289    1.5675 H         1 <0>         0.0634
     36 H14         3.2861   -4.2070    3.6960 H         1 <0>         0.0654
     37 H15         1.7534   -4.2327    4.6006 H         1 <0>         0.0659
     38 H16         1.2617   -6.4914    3.7031 H         1 <0>         0.0742
     39 H17         2.7945   -6.4656    2.7986 H         1 <0>         0.0739
     40 H18         4.0469   -6.2436    4.9271 H         1 <0>         0.0864
     41 H19         2.5141   -6.2694    5.8317 H         1 <0>         0.0873
     42 H20         2.0224   -8.5280    4.9342 H         1 <0>         0.1328
     43 H21         3.5552   -8.5023    4.0297 H         1 <0>         0.1341
     44 H22         4.7021   -8.2881    6.1094 H         1 <0>         0.4235
     45 H23         2.7548  -10.4810    6.0315 H         1 <0>         0.1619
     46 H24         4.4194  -10.0895    3.9817 H         1 <0>         0.1555
     47 H25         6.7016  -12.0028    6.6155 H         1 <0>         0.0904
     48 H26         4.9849  -12.5238    8.2290 H         1 <0>         0.0916
     49 H27         5.3506  -10.0986    7.5816 H         1 <0>         0.0959
     50 H28         3.8519  -10.6660    9.3558 H         1 <0>         0.4079
     51 H29         3.5420  -13.7255    6.7396 H         1 <0>         0.4014
     52 H30         6.5009  -13.9423    5.2450 H         1 <0>         0.3938
     53 H31         7.2104  -11.8175    3.8412 H         1 <0>         0.0735
     54 H32         5.9128  -12.9727    3.4540 H         1 <0>         0.0767
     55 H33         6.1151  -11.2710    1.7900 H         1 <0>         0.3990
     56 H34         3.2833   -8.3120    6.9467 H         1 <0>         0.4348
@<TRIPOS>BOND
     1    1    2 1
     2    1   23 1
     3    1   24 1
     4    1   25 1
     5    2    3 1
     6    2   26 1
     7    2   27 1
     8    3    4 1
     9    3   28 1
    10    3   29 1
    11    4    5 1
    12    4   30 1
    13    4   31 1
    14    5    6 1
    15    5   32 1
    16    5   33 1
    17    6    7 1
    18    6   34 1
    19    6   35 1
    20    7    8 1
    21    7   36 1
    22    7   37 1
    23    8    9 1
    24    8   38 1
    25    8   39 1
    26    9   10 1
    27    9   40 1
    28    9   41 1
    29   10   11 1
    30   10   42 1
    31   10   43 1
    32   11   12 1
    33   11   44 1
    34   11   56 1
    35   12   17 1
    36   12   13 1
    37   12   45 1
    38   13   14 2
    39   13   46 1
    40   14   15 1
    41   14   21 1
    42   15   16 1
    43   15   20 1
    44   15   47 1
    45   16   17 1
    46   16   19 1
    47   16   48 1
    48   17   18 1
    49   17   49 1
    50   18   50 1
    51   19   51 1
    52   20   52 1
    53   21   22 1
    54   21   53 1
    55   21   54 1
    56   22   55 1
@<TRIPOS>MOLECULE
CHEMBL176679__15
   56    56     0     0     0
SMALL
USER_CHARGES

@<TRIPOS>ATOM
      1 C1         -0.0187    1.5258    0.0104 C.3       1 <0>        -0.1554
      2 C2          0.0021   -0.0041    0.0020 C.3       1 <0>        -0.1263
      3 C3          0.7421   -0.5109    1.2415 C.3       1 <0>        -0.1216
      4 C4          0.7628   -2.0407    1.2331 C.3       1 <0>        -0.1217
      5 C5          1.5028   -2.5476    2.4727 C.3       1 <0>        -0.1212
      6 C6          1.5236   -4.0774    2.4642 C.3       1 <0>        -0.1217
      7 C7          2.2636   -4.5842    3.7038 C.3       1 <0>        -0.1210
      8 C8          2.2843   -6.1141    3.6954 C.3       1 <0>        -0.1180
      9 C9          3.0243   -6.6209    4.9349 C.3       1 <0>        -0.1473
     10 C10         3.0450   -8.1508    4.9265 C.3       1 <0>        -0.0146
     11 N1          3.7555   -8.6374    6.1166 N.4       1 <0>        -0.5006
     12 C11         3.7755  -10.1062    6.1085 C.3       1 <0>         0.0872
     13 C12         4.5690  -10.5865    4.9288 C.2       1 <0>        -0.1881
     14 C13         5.4213  -11.5595    4.9757 C.2       1 <0>        -0.0813
     15 C14         5.7428  -12.3365    6.2186 C.3       1 <0>         0.1053
     16 C15         4.6545  -12.1194    7.2722 C.3       1 <0>         0.0922
     17 C16         4.4049  -10.6121    7.4083 C.3       1 <0>         0.0940
     18 O1          5.6447   -9.9388    7.6355 O.3       1 <0>        -0.5620
     19 O2          3.4509  -12.7705    6.8608 O.3       1 <0>        -0.5543
     20 O3          5.8232  -13.7273    5.9004 O.3       1 <0>        -0.5540
     21 C17         6.1356  -11.9352    3.7030 C.3       1 <0>         0.0945
     22 O4          5.6959  -11.0856    2.6414 O.3       1 <0>        -0.5731
     23 H1          1.0039    1.9031    0.0027 H         1 <0>         0.0538
     24 H2         -0.5459    1.8868   -0.8726 H         1 <0>         0.0554
     25 H3         -0.5289    1.8773    0.9072 H         1 <0>         0.0538
     26 H4         -1.0205   -0.3814    0.0098 H         1 <0>         0.0607
     27 H5          0.5123   -0.3556   -0.8948 H         1 <0>         0.0607
     28 H6          1.7647   -0.1336    1.2338 H         1 <0>         0.0610
     29 H7          0.2319   -0.1594    2.1383 H         1 <0>         0.0610
     30 H8         -0.2598   -2.4180    1.2409 H         1 <0>         0.0614
     31 H9          1.2730   -2.3923    0.3363 H         1 <0>         0.0614
     32 H10         2.5254   -2.1703    2.4649 H         1 <0>         0.0616
     33 H11         0.9926   -2.1961    3.3695 H         1 <0>         0.0617
     34 H12         0.5010   -4.4547    2.4720 H         1 <0>         0.0635
     35 H13         2.0337   -4.4289    1.5675 H         1 <0>         0.0634
     36 H14         3.2861   -4.2070    3.6960 H         1 <0>         0.0656
     37 H15         1.7534   -4.2327    4.6006 H         1 <0>         0.0657
     38 H16         1.2617   -6.4914    3.7031 H         1 <0>         0.0738
     39 H17         2.7945   -6.4656    2.7986 H         1 <0>         0.0739
     40 H18         4.0469   -6.2436    4.9271 H         1 <0>         0.0867
     41 H19         2.5141   -6.2694    5.8317 H         1 <0>         0.0866
     42 H20         2.0224   -8.5280    4.9342 H         1 <0>         0.1317
     43 H21         3.5552   -8.5023    4.0297 H         1 <0>         0.1338
     44 H22         4.7021   -8.2881    6.1094 H         1 <0>         0.4334
     45 H23         2.7548  -10.4810    6.0315 H         1 <0>         0.1625
     46 H24         4.4194  -10.0895    3.9817 H         1 <0>         0.1491
     47 H25         6.7016  -12.0028    6.6155 H         1 <0>         0.0918
     48 H26         4.9849  -12.5238    8.2290 H         1 <0>         0.0907
     49 H27         3.7259  -10.4268    8.2406 H         1 <0>         0.1031
     50 H28         6.0982  -10.2122    8.4446 H         1 <0>         0.4108
     51 H29         3.5420  -13.7255    6.7396 H         1 <0>         0.4062
     52 H30         6.5009  -13.9423    5.2450 H         1 <0>         0.3930
     53 H31         7.2104  -11.8175    3.8412 H         1 <0>         0.0719
     54 H32         5.9128  -12.9727    3.4540 H         1 <0>         0.0745
     55 H33         6.1151  -11.2710    1.7900 H         1 <0>         0.3977
     56 H34         3.2833   -8.3120    6.9467 H         1 <0>         0.4272
@<TRIPOS>BOND
     1    1    2 1
     2    1   23 1
     3    1   24 1
     4    1   25 1
     5    2    3 1
     6    2   26 1
     7    2   27 1
     8    3    4 1
     9    3   28 1
    10    3   29 1
    11    4    5 1
    12    4   30 1
    13    4   31 1
    14    5    6 1
    15    5   32 1
    16    5   33 1
    17    6    7 1
    18    6   34 1
    19    6   35 1
    20    7    8 1
    21    7   36 1
    22    7   37 1
    23    8    9 1
    24    8   38 1
    25    8   39 1
    26    9   10 1
    27    9   40 1
    28    9   41 1
    29   10   11 1
    30   10   42 1
    31   10   43 1
    32   11   12 1
    33   11   44 1
    34   11   56 1
    35   12   17 1
    36   12   13 1
    37   12   45 1
    38   13   14 2
    39   13   46 1
    40   14   15 1
    41   14   21 1
    42   15   16 1
    43   15   20 1
    44   15   47 1
    45   16   17 1
    46   16   19 1
    47   16   48 1
    48   17   18 1
    49   17   49 1
    50   18   50 1
    51   19   51 1
    52   20   52 1
    53   21   22 1
    54   21   53 1
    55   21   54 1
    56   22   55 1
@<TRIPOS>MOLECULE
CHEMBL10478
   45    47     0     0     0
SMALL
USER_CHARGES

@<TRIPOS>ATOM
      1 C1          2.3931   -3.5693   -2.0227 C.ar      1 <0>        -0.1252
      2 C2          3.6586   -3.0259   -2.2367 C.ar      1 <0>        -0.0776
      3 C3          4.0986   -1.9654   -1.5059 C.ar      1 <0>        -0.1565
      4 C4          3.2667   -1.4071   -0.5202 C.ar      1 <0>         0.0293
      5 C5          1.9795   -1.9595   -0.3030 C.ar      1 <0>        -0.0763
      6 C6          1.5603   -3.0551   -1.0772 C.ar      1 <0>        -0.0809
      7 C7          1.1476   -1.4011    0.6820 C.ar      1 <0>        -0.0299
      8 C8          1.5875   -0.3401    1.4127 C.ar      1 <0>        -0.1489
      9 C9          2.8526    0.2031    1.1988 C.ar      1 <0>         0.0208
     10 C10         3.6859   -0.3119    0.2536 C.ar      1 <0>        -0.6864
     11 S1          5.2818    0.3912    0.0020 S.o2      1 <0>         2.6950
     12 O1          5.3839    1.4952    0.8908 O.2       1 <0>        -0.9390
     13 O2          6.2075   -0.6868    0.0168 O.2       1 <0>        -0.9334
     14 N1          5.3058    1.0147   -1.5320 N.pl3     1 <0>        -1.1361
     15 C11         4.4105    2.1181   -1.8883 C.3       1 <0>         0.0982
     16 C12         4.8902    2.7643   -3.1895 C.3       1 <0>         0.0299
     17 H1          5.8596    3.2375   -3.0329 H         1 <0>         0.1654
     18 C13         3.8638    3.8147   -3.6636 C.3       1 <0>         0.0663
     19 C14         3.8648    3.6336   -5.2044 C.3       1 <0>         0.0606
     20 H2          2.9130    3.9449   -5.6347 H         1 <0>         0.1141
     21 C15         4.0606    2.1029   -5.3394 C.3       1 <0>         0.0360
     22 H3          3.1095    1.5859   -5.2120 H         1 <0>         0.1677
     23 N2          4.9957    1.7430   -4.2476 N.4       1 <0>        -0.5101
     24 C16         4.6729    1.7621   -6.6995 C.3       1 <0>         0.0604
     25 O3          5.8675    2.5233   -6.8883 O.3       1 <0>        -0.5499
     26 O4          4.9508    4.3441   -5.8026 O.3       1 <0>        -0.5124
     27 O5          4.2889    5.1322   -3.3094 O.3       1 <0>        -0.5354
     28 H4          2.0668   -4.4083   -2.6193 H         1 <0>         0.1334
     29 H5          4.2999   -3.4530   -2.9935 H         1 <0>         0.1324
     30 H6          5.0820   -1.5553   -1.6823 H         1 <0>         0.1271
     31 H7          0.5823   -3.4863   -0.9228 H         1 <0>         0.1370
     32 H8          0.1643   -1.8113    0.8584 H         1 <0>         0.1421
     33 H9          0.9461    0.0873    2.1692 H         1 <0>         0.1420
     34 H10         3.1771    1.0452    1.7921 H         1 <0>         0.1491
     35 H11         5.9127    0.6492   -2.1946 H         1 <0>         0.4125
     36 H12         3.3988    1.7358   -2.0240 H         1 <0>         0.0975
     37 H13         4.4142    2.8611   -1.0907 H         1 <0>         0.1345
     38 H14         2.8773    3.6029   -3.2513 H         1 <0>         0.1092
     39 H15         5.9403    1.7169   -4.6014 H         1 <0>         0.4440
     40 H16         4.9101    0.6989   -6.7351 H         1 <0>         0.0716
     41 H17         3.9607    2.0021   -7.4890 H         1 <0>         0.0941
     42 H18         6.3102    2.3577   -7.7319 H         1 <0>         0.4011
     43 H19         4.9214    5.3001   -5.6600 H         1 <0>         0.3939
     44 H20         3.6784    5.8298   -3.5849 H         1 <0>         0.4055
     45 H21         4.7496    0.8391   -3.8728 H         1 <0>         0.4270
@<TRIPOS>BOND
     1    1    6 ar
     2    1    2 ar
     3    1   28 1
     4    2    3 ar
     5    2   29 1
     6    3    4 ar
     7    3   30 1
     8    4   10 ar
     9    4    5 ar
    10    5    6 ar
    11    5    7 ar
    12    6   31 1
    13    7    8 ar
    14    7   32 1
    15    8    9 ar
    16    8   33 1
    17    9   10 ar
    18    9   34 1
    19   10   11 1
    20   11   12 2
    21   11   13 2
    22   11   14 1
    23   14   15 1
    24   14   35 1
    25   15   16 1
    26   15   36 1
    27   15   37 1
    28   16   17 1
    29   16   23 1
    30   16   18 1
    31   18   19 1
    32   18   27 1
    33   18   38 1
    34   19   20 1
    35   19   21 1
    36   19   26 1
    37   21   22 1
    38   21   23 1
    39   21   24 1
    40   23   39 1
    41   23   45 1
    42   24   25 1
    43   24   40 1
    44   24   41 1
    45   25   42 1
    46   26   43 1
    47   27   44 1
@<TRIPOS>MOLECULE
CHEMBL10478__1
   44    46     0     0     0
SMALL
USER_CHARGES

@<TRIPOS>ATOM
      1 C1          2.3990   -3.5737   -2.0154 C.ar      1 <0>        -0.1201
      2 C2          3.6636   -3.0287   -2.2309 C.ar      1 <0>        -0.0835
      3 C3          4.1027   -1.9669   -1.5017 C.ar      1 <0>        -0.1296
      4 C4          3.2707   -1.4086   -0.5160 C.ar      1 <0>         0.0310
      5 C5          1.9844   -1.9625   -0.2972 C.ar      1 <0>        -0.0754
      6 C6          1.5662   -3.0595   -1.0699 C.ar      1 <0>        -0.0954
      7 C7          1.1525   -1.4042    0.6879 C.ar      1 <0>        -0.0415
      8 C8          1.5915   -0.3418    1.4170 C.ar      1 <0>        -0.1498
      9 C9          2.8557    0.2029    1.2016 C.ar      1 <0>         0.0076
     10 C10         3.6890   -0.3120    0.2563 C.ar      1 <0>        -0.6718
     11 S1          5.2837    0.3930    0.0027 S.o2      1 <0>         2.6950
     12 O1          5.3849    1.4983    0.8901 O.2       1 <0>        -0.9583
     13 O2          6.2109   -0.6837    0.0182 O.2       1 <0>        -0.9537
     14 N1          5.3058    1.0147   -1.5320 N.pl3     1 <0>        -1.1047
     15 C11         4.4105    2.1181   -1.8883 C.3       1 <0>         0.1373
     16 C12         4.8902    2.7643   -3.1895 C.3       1 <0>         0.0795
     17 H1          5.8708    3.2160   -3.0394 H         1 <0>         0.0886
     18 C13         3.8812    3.8394   -3.6449 C.3       1 <0>         0.0599
     19 C14         3.8625    3.6703   -5.1870 C.3       1 <0>         0.0429
     20 H2          2.9130    4.0047   -5.6050 H         1 <0>         0.0769
     21 C15         4.0250    2.1370   -5.3356 C.3       1 <0>         0.0917
     22 H3          3.0647    1.6389   -5.2022 H         1 <0>         0.1096
     23 N2          4.9635    1.7493   -4.2564 N.3       1 <0>        -0.6566
     24 C16         4.6161    1.7942   -6.7046 C.3       1 <0>         0.0802
     25 O3          4.6495    0.3749   -6.8671 O.3       1 <0>        -0.5667
     26 O4          4.9569    4.3628   -5.7911 O.3       1 <0>        -0.5481
     27 O5          4.3372    5.1451   -3.2853 O.3       1 <0>        -0.5498
     28 H4          2.0734   -4.4138   -2.6109 H         1 <0>         0.1285
     29 H5          4.3049   -3.4558   -2.9878 H         1 <0>         0.1310
     30 H6          5.0854   -1.5556   -1.6793 H         1 <0>         0.1330
     31 H7          0.5889   -3.4920   -0.9143 H         1 <0>         0.1310
     32 H8          0.1699   -1.8156    0.8654 H         1 <0>         0.1360
     33 H9          0.9500    0.0855    2.1736 H         1 <0>         0.1356
     34 H10         3.1795    1.0461    1.7937 H         1 <0>         0.1451
     35 H11         5.9116    0.6482   -2.1950 H         1 <0>         0.4228
     36 H12         3.3988    1.7358   -2.0240 H         1 <0>         0.0669
     37 H13         4.4142    2.8611   -1.0907 H         1 <0>         0.0844
     38 H14         2.8947    3.6450   -3.2240 H         1 <0>         0.0830
     39 H15         5.9053    1.6611   -4.6075 H         1 <0>         0.3510
     40 H16         3.9990    2.2351   -7.4875 H         1 <0>         0.0524
     41 H17         5.6287    2.1917   -6.7730 H         1 <0>         0.0566
     42 H18         5.0133    0.0845   -7.7147 H         1 <0>         0.3811
     43 H19         4.9489    5.3180   -5.6410 H         1 <0>         0.3838
     44 H20         3.7386    5.8572   -3.5490 H         1 <0>         0.3823
@<TRIPOS>BOND
     1    1    6 ar
     2    1    2 ar
     3    1   28 1
     4    2    3 ar
     5    2   29 1
     6    3    4 ar
     7    3   30 1
     8    4   10 ar
     9    4    5 ar
    10    5    6 ar
    11    5    7 ar
    12    6   31 1
    13    7    8 ar
    14    7   32 1
    15    8    9 ar
    16    8   33 1
    17    9   10 ar
    18    9   34 1
    19   10   11 1
    20   11   12 2
    21   11   13 2
    22   11   14 1
    23   14   15 1
    24   14   35 1
    25   15   16 1
    26   15   36 1
    27   15   37 1
    28   16   17 1
    29   16   23 1
    30   16   18 1
    31   18   19 1
    32   18   27 1
    33   18   38 1
    34   19   20 1
    35   19   21 1
    36   19   26 1
    37   21   22 1
    38   21   23 1
    39   21   24 1
    40   23   39 1
    41   24   25 1
    42   24   40 1
    43   24   41 1
    44   25   42 1
    45   26   43 1
    46   27   44 1
@<TRIPOS>MOLECULE
CHEMBL10478__2
   45    47     0     0     0
SMALL
USER_CHARGES

@<TRIPOS>ATOM
      1 C1          2.3931   -3.5693   -2.0227 C.ar      1 <0>        -0.1256
      2 C2          3.6586   -3.0259   -2.2367 C.ar      1 <0>        -0.0785
      3 C3          4.0986   -1.9654   -1.5059 C.ar      1 <0>        -0.1557
      4 C4          3.2667   -1.4071   -0.5202 C.ar      1 <0>         0.0303
      5 C5          1.9795   -1.9595   -0.3030 C.ar      1 <0>        -0.0759
      6 C6          1.5603   -3.0551   -1.0772 C.ar      1 <0>        -0.0809
      7 C7          1.1476   -1.4011    0.6820 C.ar      1 <0>        -0.0302
      8 C8          1.5875   -0.3401    1.4127 C.ar      1 <0>        -0.1483
      9 C9          2.8526    0.2031    1.1988 C.ar      1 <0>         0.0217
     10 C10         3.6859   -0.3119    0.2536 C.ar      1 <0>        -0.6848
     11 S1          5.2818    0.3912    0.0020 S.o2      1 <0>         2.6964
     12 O1          5.3839    1.4952    0.8908 O.2       1 <0>        -0.9413
     13 O2          6.2075   -0.6868    0.0168 O.2       1 <0>        -0.9357
     14 N1          5.3058    1.0147   -1.5320 N.pl3     1 <0>        -1.1387
     15 C11         4.4105    2.1181   -1.8883 C.3       1 <0>         0.1017
     16 C12         4.8902    2.7643   -3.1895 C.3       1 <0>         0.0354
     17 H1          5.8596    3.2375   -3.0329 H         1 <0>         0.1643
     18 C13         3.8638    3.8147   -3.6636 C.3       1 <0>         0.0639
     19 C14         3.8648    3.6336   -5.2044 C.3       1 <0>         0.0652
     20 H2          2.9130    3.9449   -5.6347 H         1 <0>         0.1139
     21 C15         4.0606    2.1029   -5.3394 C.3       1 <0>         0.0415
     22 H3          3.1095    1.5859   -5.2120 H         1 <0>         0.1669
     23 N2          4.9957    1.7430   -4.2476 N.4       1 <0>        -0.5130
     24 C16         4.6729    1.7621   -6.6995 C.3       1 <0>         0.0595
     25 O3          5.8675    2.5233   -6.8883 O.3       1 <0>        -0.5512
     26 O4          4.9508    4.3441   -5.8026 O.3       1 <0>        -0.5173
     27 O5          2.5705    3.5371   -3.1230 O.3       1 <0>        -0.5478
     28 H4          2.0668   -4.4083   -2.6193 H         1 <0>         0.1330
     29 H5          4.2999   -3.4530   -2.9935 H         1 <0>         0.1319
     30 H6          5.0820   -1.5553   -1.6823 H         1 <0>         0.1265
     31 H7          0.5823   -3.4863   -0.9228 H         1 <0>         0.1367
     32 H8          0.1643   -1.8113    0.8584 H         1 <0>         0.1418
     33 H9          0.9461    0.0873    2.1692 H         1 <0>         0.1416
     34 H10         3.1771    1.0452    1.7921 H         1 <0>         0.1485
     35 H11         5.9127    0.6492   -2.1946 H         1 <0>         0.4107
     36 H12         3.3988    1.7358   -2.0240 H         1 <0>         0.1096
     37 H13         4.4142    2.8611   -1.0907 H         1 <0>         0.1298
     38 H14         4.1880    4.8197   -3.3935 H         1 <0>         0.1188
     39 H15         5.9403    1.7169   -4.6014 H         1 <0>         0.4412
     40 H16         4.9101    0.6989   -6.7351 H         1 <0>         0.0710
     41 H17         3.9607    2.0021   -7.4890 H         1 <0>         0.0934
     42 H18         6.3102    2.3577   -7.7319 H         1 <0>         0.4010
     43 H19         4.9214    5.3001   -5.6600 H         1 <0>         0.3944
     44 H20         1.8886    4.1683   -3.3907 H         1 <0>         0.4076
     45 H21         4.7496    0.8391   -3.8728 H         1 <0>         0.4267
@<TRIPOS>BOND
     1    1    6 ar
     2    1    2 ar
     3    1   28 1
     4    2    3 ar
     5    2   29 1
     6    3    4 ar
     7    3   30 1
     8    4   10 ar
     9    4    5 ar
    10    5    6 ar
    11    5    7 ar
    12    6   31 1
    13    7    8 ar
    14    7   32 1
    15    8    9 ar
    16    8   33 1
    17    9   10 ar
    18    9   34 1
    19   10   11 1
    20   11   12 2
    21   11   13 2
    22   11   14 1
    23   14   15 1
    24   14   35 1
    25   15   16 1
    26   15   36 1
    27   15   37 1
    28   16   17 1
    29   16   23 1
    30   16   18 1
    31   18   19 1
    32   18   27 1
    33   18   38 1
    34   19   20 1
    35   19   21 1
    36   19   26 1
    37   21   22 1
    38   21   23 1
    39   21   24 1
    40   23   39 1
    41   23   45 1
    42   24   25 1
    43   24   40 1
    44   24   41 1
    45   25   42 1
    46   26   43 1
    47   27   44 1
@<TRIPOS>MOLECULE
CHEMBL10478__3
   44    46     0     0     0
SMALL
USER_CHARGES

@<TRIPOS>ATOM
      1 C1          2.3990   -3.5737   -2.0154 C.ar      1 <0>        -0.1205
      2 C2          3.6636   -3.0287   -2.2309 C.ar      1 <0>        -0.0844
      3 C3          4.1027   -1.9669   -1.5017 C.ar      1 <0>        -0.1287
      4 C4          3.2707   -1.4086   -0.5160 C.ar      1 <0>         0.0319
      5 C5          1.9844   -1.9625   -0.2972 C.ar      1 <0>        -0.0750
      6 C6          1.5662   -3.0595   -1.0699 C.ar      1 <0>        -0.0954
      7 C7          1.1525   -1.4042    0.6879 C.ar      1 <0>        -0.0419
      8 C8          1.5915   -0.3418    1.4170 C.ar      1 <0>        -0.1492
      9 C9          2.8557    0.2029    1.2016 C.ar      1 <0>         0.0085
     10 C10         3.6890   -0.3120    0.2563 C.ar      1 <0>        -0.6700
     11 S1          5.2837    0.3930    0.0027 S.o2      1 <0>         2.6957
     12 O1          5.3849    1.4983    0.8901 O.2       1 <0>        -0.9606
     13 O2          6.2109   -0.6837    0.0182 O.2       1 <0>        -0.9561
     14 N1          5.3058    1.0147   -1.5320 N.pl3     1 <0>        -1.1074
     15 C11         4.4105    2.1181   -1.8883 C.3       1 <0>         0.1421
     16 C12         4.8902    2.7643   -3.1895 C.3       1 <0>         0.0822
     17 H1          5.8708    3.2160   -3.0394 H         1 <0>         0.0844
     18 C13         3.8812    3.8394   -3.6449 C.3       1 <0>         0.0628
     19 C14         3.8625    3.6703   -5.1870 C.3       1 <0>         0.0430
     20 H2          2.9130    4.0047   -5.6050 H         1 <0>         0.0780
     21 C15         4.0250    2.1370   -5.3356 C.3       1 <0>         0.0990
     22 H3          3.0647    1.6389   -5.2022 H         1 <0>         0.1101
     23 N2          4.9635    1.7493   -4.2564 N.3       1 <0>        -0.6591
     24 C16         4.6161    1.7942   -6.7046 C.3       1 <0>         0.0785
     25 O3          4.6495    0.3749   -6.8671 O.3       1 <0>        -0.5660
     26 O4          4.9569    4.3628   -5.7911 O.3       1 <0>        -0.5531
     27 O5          2.5879    3.5846   -3.0930 O.3       1 <0>        -0.5441
     28 H4          2.0734   -4.4138   -2.6109 H         1 <0>         0.1280
     29 H5          4.3049   -3.4558   -2.9878 H         1 <0>         0.1304
     30 H6          5.0854   -1.5556   -1.6793 H         1 <0>         0.1325
     31 H7          0.5889   -3.4920   -0.9143 H         1 <0>         0.1307
     32 H8          0.1699   -1.8156    0.8654 H         1 <0>         0.1356
     33 H9          0.9500    0.0855    2.1736 H         1 <0>         0.1352
     34 H10         3.1795    1.0461    1.7937 H         1 <0>         0.1444
     35 H11         5.9116    0.6482   -2.1950 H         1 <0>         0.4210
     36 H12         3.3988    1.7358   -2.0240 H         1 <0>         0.0808
     37 H13         4.4142    2.8611   -1.0907 H         1 <0>         0.0788
     38 H14         4.2290    4.8353   -3.3706 H         1 <0>         0.0778
     39 H15         5.9053    1.6611   -4.6075 H         1 <0>         0.3474
     40 H16         3.9990    2.2351   -7.4875 H         1 <0>         0.0512
     41 H17         5.6287    2.1917   -6.7730 H         1 <0>         0.0553
     42 H18         5.0133    0.0845   -7.7147 H         1 <0>         0.3803
     43 H19         4.9489    5.3180   -5.6410 H         1 <0>         0.3837
     44 H20         1.9166    4.2319   -3.3488 H         1 <0>         0.3821
@<TRIPOS>BOND
     1    1    6 ar
     2    1    2 ar
     3    1   28 1
     4    2    3 ar
     5    2   29 1
     6    3    4 ar
     7    3   30 1
     8    4   10 ar
     9    4    5 ar
    10    5    6 ar
    11    5    7 ar
    12    6   31 1
    13    7    8 ar
    14    7   32 1
    15    8    9 ar
    16    8   33 1
    17    9   10 ar
    18    9   34 1
    19   10   11 1
    20   11   12 2
    21   11   13 2
    22   11   14 1
    23   14   15 1
    24   14   35 1
    25   15   16 1
    26   15   36 1
    27   15   37 1
    28   16   17 1
    29   16   23 1
    30   16   18 1
    31   18   19 1
    32   18   27 1
    33   18   38 1
    34   19   20 1
    35   19   21 1
    36   19   26 1
    37   21   22 1
    38   21   23 1
    39   21   24 1
    40   23   39 1
    41   24   25 1
    42   24   40 1
    43   24   41 1
    44   25   42 1
    45   26   43 1
    46   27   44 1
@<TRIPOS>MOLECULE
CHEMBL260291
   45    48     0     0     0
SMALL
USER_CHARGES

@<TRIPOS>ATOM
      1 C1         -0.2963    1.8930    0.0794 C.3       1 <0>        -0.1442
      2 C2         -0.3481    0.3938   -0.0641 C.ar      1 <0>         0.0983
      3 C3         -0.4610   -0.1871   -1.2914 C.ar      1 <0>        -0.2263
      4 C4         -0.5069   -1.5840   -1.4011 C.ar      1 <0>         0.4984
      5 N1         -0.4437   -2.3611   -0.3397 N.ar      1 <0>        -0.5261
      6 C5         -0.3323   -1.8481    0.8914 C.ar      1 <0>         0.1475
      7 C6         -0.2751   -0.4439    1.0677 C.ar      1 <0>        -0.0911
      8 C7         -0.1532    0.0896    2.3595 C.ar      1 <0>        -0.0943
      9 C8         -0.0852   -0.7612    3.4411 C.ar      1 <0>         0.1676
     10 C9         -0.1367   -2.1474    3.2597 C.ar      1 <0>        -0.0402
     11 C10        -0.2661   -2.6863    2.0179 C.ar      1 <0>        -0.1238
     12 N2          0.0368   -0.2342    4.7322 N.am      1 <0>        -0.6743
     13 C11         0.7656   -0.8858    5.6599 C.2       1 <0>         0.5503
     14 O1          1.3956   -1.8752    5.3511 O.2       1 <0>        -0.5115
     15 C12         0.7978   -0.3851    7.0809 C.3       1 <0>        -0.2057
     16 C13         2.1148    0.2012    7.5937 C.3       1 <0>        -0.1472
     17 C14         1.6436   -1.1684    8.0869 C.3       1 <0>        -0.1409
     18 N3         -0.6220   -2.1615   -2.6576 N.pl3     1 <0>        -0.5839
     19 C15        -0.8068   -1.3316   -3.8586 C.3       1 <0>         0.0707
     20 C16         0.2270   -1.7602   -4.9062 C.3       1 <0>         0.0424
     21 O2          0.1480   -3.1752   -5.0940 O.3       1 <0>        -0.3631
     22 C17         0.4594   -3.9389   -3.9262 C.3       1 <0>         0.0470
     23 C18        -0.5568   -3.6215   -2.8291 C.3       1 <0>         0.0573
     24 H1          0.7399    2.2274    0.0279 H         1 <0>         0.1091
     25 H2         -0.8676    2.3551   -0.7257 H         1 <0>         0.0981
     26 H3         -0.7236    2.1811    1.0399 H         1 <0>         0.0945
     27 H4         -0.5154    0.4273   -2.1779 H         1 <0>         0.1796
     28 H5         -0.1127    1.1590    2.5051 H         1 <0>         0.1593
     29 H6         -0.0817   -2.7989    4.1194 H         1 <0>         0.1607
     30 H7         -0.3050   -3.7587    1.8961 H         1 <0>         0.1552
     31 H8         -0.4031    0.6000    4.9591 H         1 <0>         0.4225
     32 H9         -0.1276    0.0632    7.4425 H         1 <0>         0.1332
     33 H10         2.9579    0.2247    6.9032 H         1 <0>         0.1020
     34 H11         2.0559    1.0354    8.2927 H         1 <0>         0.1125
     35 H12         1.2747   -1.2351    9.1105 H         1 <0>         0.1114
     36 H13         2.1767   -2.0458    7.7210 H         1 <0>         0.1108
     37 H14        -1.8121   -1.4768   -4.2541 H         1 <0>         0.1078
     38 H15        -0.6594   -0.2816   -3.6056 H         1 <0>         0.1133
     39 H16         0.0198   -1.2556   -5.8499 H         1 <0>         0.1271
     40 H17         1.2263   -1.4939   -4.5618 H         1 <0>         0.0673
     41 H18         0.4195   -5.0017   -4.1649 H         1 <0>         0.1264
     42 H19         1.4596   -3.6805   -3.5783 H         1 <0>         0.0661
     43 H20        -0.2440   -4.0873   -1.8946 H         1 <0>         0.0906
     44 H21        -1.5365   -4.0012   -3.1191 H         1 <0>         0.1115
     45 H22        -0.4789   -3.3239   -0.4524 H         1 <0>         0.4337
@<TRIPOS>BOND
     1    1    2 1
     2    1   24 1
     3    1   25 1
     4    1   26 1
     5    2    7 ar
     6    2    3 ar
     7    3    4 ar
     8    3   27 1
     9    4    5 ar
    10    4   18 1
    11    5    6 ar
    12    5   45 1
    13    6   11 ar
    14    6    7 ar
    15    7    8 ar
    16    8    9 ar
    17    8   28 1
    18    9   10 ar
    19    9   12 1
    20   10   11 ar
    21   10   29 1
    22   11   30 1
    23   12   13 am
    24   12   31 1
    25   13   14 2
    26   13   15 1
    27   15   17 1
    28   15   16 1
    29   15   32 1
    30   16   17 1
    31   16   33 1
    32   16   34 1
    33   17   35 1
    34   17   36 1
    35   18   23 1
    36   18   19 1
    37   19   20 1
    38   19   37 1
    39   19   38 1
    40   20   21 1
    41   20   39 1
    42   20   40 1
    43   21   22 1
    44   22   23 1
    45   22   41 1
    46   22   42 1
    47   23   43 1
    48   23   44 1
@<TRIPOS>MOLECULE
CHEMBL260290
   59    62     0     0     0
SMALL
USER_CHARGES

@<TRIPOS>ATOM
      1 C1         -0.3365    1.9492    0.0920 C.3       1 <0>        -0.1433
      2 C2         -0.4053    0.4523   -0.0688 C.ar      1 <0>         0.0947
      3 C3         -0.5386   -0.1126   -1.3015 C.ar      1 <0>        -0.2256
      4 C4         -0.6001   -1.5075   -1.4272 C.ar      1 <0>         0.4969
      5 N1         -0.5323   -2.2979   -0.3759 N.ar      1 <0>        -0.5280
      6 C5         -0.4012   -1.8009    0.8597 C.ar      1 <0>         0.1476
      7 C6         -0.3275   -0.3996    1.0521 C.ar      1 <0>        -0.0915
      8 C7         -0.1849    0.1171    2.3486 C.ar      1 <0>        -0.0953
      9 C8         -0.1129   -0.7473    3.4190 C.ar      1 <0>         0.1664
     10 C9         -0.1806   -2.1306    3.2219 C.ar      1 <0>        -0.0410
     11 C10        -0.3302   -2.6532    1.9754 C.ar      1 <0>        -0.1246
     12 N2          0.0298   -0.2370    4.7148 N.am      1 <0>        -0.6785
     13 C11         0.7621   -0.9075    5.6262 C.2       1 <0>         0.5229
     14 O1          1.3786   -1.8992    5.2981 O.2       1 <0>        -0.5089
     15 C12         0.8150   -0.4251    7.0529 C.3       1 <0>        -0.1044
     16 C13         1.3866    0.9936    7.0907 C.3       1 <0>        -0.1119
     17 C14         1.4402    1.4835    8.5392 C.3       1 <0>        -0.1143
     18 C15         2.3339    0.5515    9.3599 C.3       1 <0>        -0.0956
     19 C16         1.7623   -0.8672    9.3221 C.3       1 <0>        -0.1166
     20 C17         1.7087   -1.3570    7.8736 C.3       1 <0>        -0.1010
     21 C18         2.3876    1.0413   10.8084 C.3       1 <0>        -0.1508
     22 N3         -0.7359   -2.0687   -2.6890 N.pl3     1 <0>        -0.5757
     23 C19        -0.9304   -1.2167   -3.8701 C.3       1 <0>         0.1037
     24 C20         0.1303   -1.5742   -4.9160 C.3       1 <0>        -0.1404
     25 C21         0.0687   -3.0755   -5.2068 C.3       1 <0>        -0.1280
     26 C22         0.3699   -3.8576   -3.9263 C.3       1 <0>        -0.1380
     27 C23        -0.6820   -3.5257   -2.8701 C.3       1 <0>         0.0931
     28 H1          0.7024    2.2736    0.0321 H         1 <0>         0.1079
     29 H2         -0.9125    2.4266   -0.7007 H         1 <0>         0.0972
     30 H3         -0.7495    2.2299    1.0608 H         1 <0>         0.0936
     31 H4         -0.5972    0.5130   -2.1799 H         1 <0>         0.1795
     32 H5         -0.1318    1.1842    2.5063 H         1 <0>         0.1580
     33 H6         -0.1221   -2.7929    4.0730 H         1 <0>         0.1597
     34 H7         -0.3815   -3.7237    1.8412 H         1 <0>         0.1541
     35 H8         -0.3984    0.5990    4.9567 H         1 <0>         0.4203
     36 H9         -0.1908   -0.4229    7.4732 H         1 <0>         0.1071
     37 H10         2.3923    0.9915    6.6704 H         1 <0>         0.0713
     38 H11         0.7499    1.6576    6.5060 H         1 <0>         0.0660
     39 H12         1.8474    2.4942    8.5661 H         1 <0>         0.0706
     40 H13         0.4345    1.4856    8.9594 H         1 <0>         0.0677
     41 H14         3.3396    0.5493    8.9396 H         1 <0>         0.0716
     42 H15         2.3990   -1.5312    9.9068 H         1 <0>         0.0708
     43 H16         0.7566   -0.8650    9.7424 H         1 <0>         0.0655
     44 H17         1.3014   -2.3677    7.8467 H         1 <0>         0.0718
     45 H18         2.7144   -1.3592    7.4534 H         1 <0>         0.0722
     46 H19         1.3819    1.0435   11.2287 H         1 <0>         0.0557
     47 H20         3.0243    0.3774   11.3931 H         1 <0>         0.0572
     48 H21         2.7948    2.0520   10.8353 H         1 <0>         0.0563
     49 H22        -1.9241   -1.3876   -4.2843 H         1 <0>         0.0985
     50 H23        -0.8256   -0.1695   -3.5866 H         1 <0>         0.1028
     51 H24        -0.0613   -1.0177   -5.8334 H         1 <0>         0.0958
     52 H25         1.1186   -1.3179   -4.5342 H         1 <0>         0.0754
     53 H26        -0.9274   -3.3353   -5.5652 H         1 <0>         0.0743
     54 H27         0.8059   -3.3283   -5.9688 H         1 <0>         0.0822
     55 H28         0.3489   -4.9264   -4.1394 H         1 <0>         0.0954
     56 H29         1.3559   -3.5798   -3.5538 H         1 <0>         0.0746
     57 H30        -0.4134   -4.0015   -1.9269 H         1 <0>         0.0788
     58 H31        -1.6549   -3.8891   -3.2009 H         1 <0>         0.1026
     59 H32        -0.5787   -3.2589   -0.4996 H         1 <0>         0.4335
@<TRIPOS>BOND
     1    1    2 1
     2    1   28 1
     3    1   29 1
     4    1   30 1
     5    2    7 ar
     6    2    3 ar
     7    3    4 ar
     8    3   31 1
     9    4    5 ar
    10    4   22 1
    11    5    6 ar
    12    5   59 1
    13    6   11 ar
    14    6    7 ar
    15    7    8 ar
    16    8    9 ar
    17    8   32 1
    18    9   10 ar
    19    9   12 1
    20   10   11 ar
    21   10   33 1
    22   11   34 1
    23   12   13 am
    24   12   35 1
    25   13   14 2
    26   13   15 1
    27   15   20 1
    28   15   16 1
    29   15   36 1
    30   16   17 1
    31   16   37 1
    32   16   38 1
    33   17   18 1
    34   17   39 1
    35   17   40 1
    36   18   19 1
    37   18   21 1
    38   18   41 1
    39   19   20 1
    40   19   42 1
    41   19   43 1
    42   20   44 1
    43   20   45 1
    44   21   46 1
    45   21   47 1
    46   21   48 1
    47   22   27 1
    48   22   23 1
    49   23   24 1
    50   23   49 1
    51   23   50 1
    52   24   25 1
    53   24   51 1
    54   24   52 1
    55   25   26 1
    56   25   53 1
    57   25   54 1
    58   26   27 1
    59   26   55 1
    60   26   56 1
    61   27   57 1
    62   27   58 1
@<TRIPOS>MOLECULE
CHEMBL406704
   62    65     0     0     0
SMALL
USER_CHARGES

@<TRIPOS>ATOM
      1 C1         -0.3365    1.9492    0.0920 C.3       1 <0>        -0.1433
      2 C2         -0.4053    0.4523   -0.0688 C.ar      1 <0>         0.0946
      3 C3         -0.5386   -0.1126   -1.3015 C.ar      1 <0>        -0.2255
      4 C4         -0.6001   -1.5075   -1.4272 C.ar      1 <0>         0.4971
      5 N1         -0.5323   -2.2979   -0.3759 N.ar      1 <0>        -0.5281
      6 C5         -0.4012   -1.8009    0.8597 C.ar      1 <0>         0.1477
      7 C6         -0.3275   -0.3996    1.0521 C.ar      1 <0>        -0.0915
      8 C7         -0.1849    0.1171    2.3486 C.ar      1 <0>        -0.0953
      9 C8         -0.1129   -0.7473    3.4190 C.ar      1 <0>         0.1663
     10 C9         -0.1806   -2.1306    3.2219 C.ar      1 <0>        -0.0410
     11 C10        -0.3302   -2.6532    1.9754 C.ar      1 <0>        -0.1246
     12 N2          0.0298   -0.2370    4.7148 N.am      1 <0>        -0.6785
     13 C11         0.7621   -0.9075    5.6262 C.2       1 <0>         0.5229
     14 O1          1.3786   -1.8992    5.2981 O.2       1 <0>        -0.5089
     15 C12         0.8150   -0.4251    7.0529 C.3       1 <0>        -0.1044
     16 C13         1.3866    0.9936    7.0907 C.3       1 <0>        -0.1119
     17 C14         1.4402    1.4835    8.5392 C.3       1 <0>        -0.1143
     18 C15         2.3339    0.5515    9.3599 C.3       1 <0>        -0.0956
     19 C16         1.7623   -0.8672    9.3221 C.3       1 <0>        -0.1166
     20 C17         1.7087   -1.3570    7.8736 C.3       1 <0>        -0.1010
     21 C18         2.3876    1.0413   10.8084 C.3       1 <0>        -0.1508
     22 N3         -0.7359   -2.0687   -2.6890 N.pl3     1 <0>        -0.5752
     23 C19        -0.9304   -1.2167   -3.8701 C.3       1 <0>         0.1041
     24 C20         0.1303   -1.5742   -4.9160 C.3       1 <0>        -0.1363
     25 C21         0.0687   -3.0755   -5.2068 C.3       1 <0>        -0.0956
     26 C22         0.3699   -3.8576   -3.9263 C.3       1 <0>        -0.1340
     27 C23        -0.6820   -3.5257   -2.8701 C.3       1 <0>         0.0934
     28 C24         1.1035   -3.4304   -6.2764 C.3       1 <0>        -0.1519
     29 H1          0.7024    2.2736    0.0321 H         1 <0>         0.1079
     30 H2         -0.9125    2.4266   -0.7007 H         1 <0>         0.0971
     31 H3         -0.7495    2.2299    1.0608 H         1 <0>         0.0935
     32 H4         -0.5972    0.5130   -2.1799 H         1 <0>         0.1794
     33 H5         -0.1318    1.1842    2.5063 H         1 <0>         0.1579
     34 H6         -0.1221   -2.7929    4.0730 H         1 <0>         0.1596
     35 H7         -0.3815   -3.7237    1.8412 H         1 <0>         0.1540
     36 H8         -0.3984    0.5990    4.9567 H         1 <0>         0.4203
     37 H9         -0.1908   -0.4229    7.4732 H         1 <0>         0.1071
     38 H10         2.3923    0.9915    6.6704 H         1 <0>         0.0713
     39 H11         0.7499    1.6576    6.5060 H         1 <0>         0.0660
     40 H12         1.8474    2.4942    8.5661 H         1 <0>         0.0706
     41 H13         0.4345    1.4856    8.9594 H         1 <0>         0.0677
     42 H14         3.3396    0.5493    8.9396 H         1 <0>         0.0716
     43 H15         2.3990   -1.5312    9.9068 H         1 <0>         0.0708
     44 H16         0.7566   -0.8650    9.7424 H         1 <0>         0.0655
     45 H17         1.3014   -2.3677    7.8467 H         1 <0>         0.0718
     46 H18         2.7144   -1.3592    7.4534 H         1 <0>         0.0722
     47 H19         1.3819    1.0435   11.2287 H         1 <0>         0.0557
     48 H20         3.0243    0.3774   11.3931 H         1 <0>         0.0572
     49 H21         2.7948    2.0520   10.8353 H         1 <0>         0.0563
     50 H22        -1.9241   -1.3876   -4.2843 H         1 <0>         0.0985
     51 H23        -0.8256   -0.1695   -3.5866 H         1 <0>         0.1031
     52 H24        -0.0613   -1.0177   -5.8334 H         1 <0>         0.0959
     53 H25         1.1186   -1.3179   -4.5342 H         1 <0>         0.0760
     54 H26        -0.9274   -3.3353   -5.5652 H         1 <0>         0.0809
     55 H27         0.3489   -4.9264   -4.1394 H         1 <0>         0.0955
     56 H28         1.3559   -3.5798   -3.5538 H         1 <0>         0.0752
     57 H29        -0.4134   -4.0015   -1.9269 H         1 <0>         0.0791
     58 H30        -1.6549   -3.8891   -3.2009 H         1 <0>         0.1026
     59 H31         2.0997   -3.1702   -5.9186 H         1 <0>         0.0579
     60 H32         1.0597   -4.4996   -6.4836 H         1 <0>         0.0625
     61 H33         0.8884   -2.8743   -7.1888 H         1 <0>         0.0639
     62 H34        -0.5787   -3.2589   -0.4996 H         1 <0>         0.4335
@<TRIPOS>BOND
     1    1    2 1
     2    1   29 1
     3    1   30 1
     4    1   31 1
     5    2    7 ar
     6    2    3 ar
     7    3    4 ar
     8    3   32 1
     9    4    5 ar
    10    4   22 1
    11    5    6 ar
    12    5   62 1
    13    6   11 ar
    14    6    7 ar
    15    7    8 ar
    16    8    9 ar
    17    8   33 1
    18    9   10 ar
    19    9   12 1
    20   10   11 ar
    21   10   34 1
    22   11   35 1
    23   12   13 am
    24   12   36 1
    25   13   14 2
    26   13   15 1
    27   15   20 1
    28   15   16 1
    29   15   37 1
    30   16   17 1
    31   16   38 1
    32   16   39 1
    33   17   18 1
    34   17   40 1
    35   17   41 1
    36   18   19 1
    37   18   21 1
    38   18   42 1
    39   19   20 1
    40   19   43 1
    41   19   44 1
    42   20   45 1
    43   20   46 1
    44   21   47 1
    45   21   48 1
    46   21   49 1
    47   22   27 1
    48   22   23 1
    49   23   24 1
    50   23   50 1
    51   23   51 1
    52   24   25 1
    53   24   52 1
    54   24   53 1
    55   25   26 1
    56   25   28 1
    57   25   54 1
    58   26   27 1
    59   26   55 1
    60   26   56 1
    61   27   57 1
    62   27   58 1
    63   28   59 1
    64   28   60 1
    65   28   61 1
@<TRIPOS>MOLECULE
CHEMBL406704__1
   61    64     0     0     0
SMALL
USER_CHARGES

@<TRIPOS>ATOM
      1 C1         -0.1729    1.7150    0.0390 C.3       1 <0>        -0.1204
      2 C2         -0.1894    0.2103   -0.0436 C.ar      1 <0>         0.0082
      3 C3         -0.2486   -0.4226   -1.2487 C.ar      1 <0>        -0.2215
      4 C4         -0.2625   -1.8235   -1.3016 C.ar      1 <0>         0.4320
      5 N1         -0.2199   -2.5549   -0.2072 N.ar      1 <0>        -0.5509
      6 C5         -0.1610   -1.9897    1.0044 C.ar      1 <0>         0.1795
      7 C6         -0.1381   -0.5786    1.1239 C.ar      1 <0>        -0.1298
      8 C7         -0.0713    0.0099    2.3958 C.ar      1 <0>        -0.1108
      9 C8         -0.0230   -0.7942    3.5134 C.ar      1 <0>         0.1275
     10 C9         -0.0402   -2.1875    3.3884 C.ar      1 <0>        -0.0818
     11 C10        -0.1163   -2.7795    2.1665 C.ar      1 <0>        -0.0971
     12 N2          0.0442   -0.2123    4.7848 N.am      1 <0>        -0.6745
     13 C11         0.7545   -0.8091    5.7624 C.2       1 <0>         0.5166
     14 O1          1.4139   -1.7969    5.5164 O.2       1 <0>        -0.5159
     15 C12         0.7294   -0.2492    7.1613 C.3       1 <0>        -0.1040
     16 C13         1.2569    1.1870    7.1453 C.3       1 <0>        -0.1119
     17 C14         1.2314    1.7555    8.5655 C.3       1 <0>        -0.1128
     18 C15         2.1146    0.8979    9.4741 C.3       1 <0>        -0.0956
     19 C16         1.5871   -0.5382    9.4901 C.3       1 <0>        -0.1150
     20 C17         1.6126   -1.1068    8.0699 C.3       1 <0>        -0.1004
     21 C18         2.0891    1.4664   10.8943 C.3       1 <0>        -0.1490
     22 N3         -0.3230   -2.4543   -2.5361 N.pl3     1 <0>        -0.6015
     23 C19        -0.3419   -3.9206   -2.6274 C.3       1 <0>         0.1222
     24 C20        -1.5516   -4.3469   -3.4650 C.3       1 <0>        -0.1306
     25 C21        -1.5070   -3.6334   -4.8182 C.3       1 <0>        -0.0928
     26 C22        -1.5787   -2.1201   -4.6015 C.3       1 <0>        -0.1314
     27 C23        -0.3754   -1.6685   -3.7765 C.3       1 <0>         0.1190
     28 C24        -2.6952   -4.0831   -5.6709 C.3       1 <0>        -0.1477
     29 H1          0.8575    2.0692    0.0081 H         1 <0>         0.0809
     30 H2         -0.7256    2.1312   -0.8032 H         1 <0>         0.0746
     31 H3         -0.6385    2.0328    0.9719 H         1 <0>         0.0744
     32 H4         -0.2852    0.1537   -2.1614 H         1 <0>         0.1363
     33 H5         -0.0573    1.0850    2.4979 H         1 <0>         0.1303
     34 H6         -0.0014   -2.8019    4.2758 H         1 <0>         0.1368
     35 H7         -0.1293   -3.8566    2.0882 H         1 <0>         0.1358
     36 H8         -0.4204    0.6206    4.9622 H         1 <0>         0.4098
     37 H9         -0.2937   -0.2563    7.5372 H         1 <0>         0.1012
     38 H10         2.2800    1.1941    6.7694 H         1 <0>         0.0702
     39 H11         0.6277    1.7979    6.4981 H         1 <0>         0.0662
     40 H12         1.6072    2.7786    8.5542 H         1 <0>         0.0674
     41 H13         0.2083    1.7483    8.9415 H         1 <0>         0.0658
     42 H14         3.1377    0.9050    9.0982 H         1 <0>         0.0710
     43 H15         2.2163   -1.1492   10.1373 H         1 <0>         0.0674
     44 H16         0.5640   -0.5454    9.8660 H         1 <0>         0.0636
     45 H17         1.2368   -2.1299    8.0813 H         1 <0>         0.0711
     46 H18         2.6357   -1.0996    7.6939 H         1 <0>         0.0711
     47 H19         1.0660    1.4592   11.2702 H         1 <0>         0.0546
     48 H20         2.7183    0.8554   11.5416 H         1 <0>         0.0552
     49 H21         2.4649    2.4895   10.8829 H         1 <0>         0.0545
     50 H22         0.5741   -4.2688   -3.1047 H         1 <0>         0.0605
     51 H23        -0.4207   -4.3480   -1.6277 H         1 <0>         0.0986
     52 H24        -1.5241   -5.4253   -3.6212 H         1 <0>         0.0742
     53 H25        -2.4693   -4.0779   -2.9419 H         1 <0>         0.0656
     54 H26        -0.5777   -3.8834   -5.3300 H         1 <0>         0.0715
     55 H27        -1.5705   -1.6136   -5.5666 H         1 <0>         0.0764
     56 H28        -2.4961   -1.8721   -4.0677 H         1 <0>         0.0671
     57 H29        -0.4764   -0.6105   -3.5348 H         1 <0>         0.0851
     58 H30         0.5377   -1.8291   -4.3496 H         1 <0>         0.0679
     59 H31        -3.6247   -3.8338   -5.1591 H         1 <0>         0.0540
     60 H32        -2.6636   -3.5750   -6.6347 H         1 <0>         0.0553
     61 H33        -2.6436   -5.1607   -5.8263 H         1 <0>         0.0560
@<TRIPOS>BOND
     1    1    2 1
     2    1   29 1
     3    1   30 1
     4    1   31 1
     5    2    7 ar
     6    2    3 ar
     7    3    4 ar
     8    3   32 1
     9    4    5 ar
    10    4   22 1
    11    5    6 ar
    12    6   11 ar
    13    6    7 ar
    14    7    8 ar
    15    8    9 ar
    16    8   33 1
    17    9   10 ar
    18    9   12 1
    19   10   11 ar
    20   10   34 1
    21   11   35 1
    22   12   13 am
    23   12   36 1
    24   13   14 2
    25   13   15 1
    26   15   20 1
    27   15   16 1
    28   15   37 1
    29   16   17 1
    30   16   38 1
    31   16   39 1
    32   17   18 1
    33   17   40 1
    34   17   41 1
    35   18   19 1
    36   18   21 1
    37   18   42 1
    38   19   20 1
    39   19   43 1
    40   19   44 1
    41   20   45 1
    42   20   46 1
    43   21   47 1
    44   21   48 1
    45   21   49 1
    46   22   27 1
    47   22   23 1
    48   23   24 1
    49   23   50 1
    50   23   51 1
    51   24   25 1
    52   24   52 1
    53   24   53 1
    54   25   26 1
    55   25   28 1
    56   25   54 1
    57   26   27 1
    58   26   55 1
    59   26   56 1
    60   27   57 1
    61   27   58 1
    62   28   59 1
    63   28   60 1
    64   28   61 1
@<TRIPOS>MOLECULE
CHEMBL590070
   66    68     0     0     0
SMALL
USER_CHARGES

@<TRIPOS>ATOM
      1 C1         -1.0338    0.2926    4.7253 C.1       1 <0>        -0.1393
      2 C2         -0.9866    1.3462    4.2097 C.1       1 <0>        -0.2156
      3 C3         -0.9273    2.6673    3.5632 C.3       1 <0>         0.1734
      4 O1          0.3368    3.2751    3.8365 O.3       1 <0>        -0.3037
      5 C4          0.5553    4.5061    3.3093 C.ar      1 <0>         0.1699
      6 C5         -0.4333    5.1193    2.5474 C.ar      1 <0>        -0.2211
      7 C6         -0.2159    6.3678    2.0104 C.ar      1 <0>        -0.0127
      8 C7          1.0015    7.0200    2.2324 C.ar      1 <0>        -0.2079
      9 C8          1.9929    6.3996    2.9999 C.ar      1 <0>        -0.0394
     10 C9          1.7649    5.1532    3.5374 C.ar      1 <0>        -0.1606
     11 C10         1.2393    8.3573    1.6588 C.2       1 <0>         0.4398
     12 O2          0.3003    9.0385    1.2955 O.2       1 <0>        -0.4412
     13 C11         2.6207    8.8702    1.5255 C.ar      1 <0>        -0.1218
     14 C12         3.6882    7.9781    1.4045 C.ar      1 <0>        -0.0875
     15 C13         4.9745    8.4560    1.2803 C.ar      1 <0>        -0.0646
     16 C14         5.2107    9.8317    1.2759 C.ar      1 <0>        -0.1180
     17 C15         4.1439   10.7236    1.3973 C.ar      1 <0>        -0.0950
     18 C16         2.8567   10.2464    1.5148 C.ar      1 <0>        -0.0722
     19 C17         6.5928   10.3447    1.1430 C.2       1 <0>         0.5643
     20 O3          7.5217    9.5682    1.0378 O.2       1 <0>        -0.5197
     21 N1          6.8210   11.6730    1.1388 N.am      1 <0>        -0.7333
     22 C18         8.1888   12.1808    1.0072 C.3       1 <0>         0.1249
     23 C19         8.1695   13.7105    1.0310 C.3       1 <0>        -0.1643
     24 C20         9.5980   14.2408    0.8936 C.3       1 <0>        -0.0087
     25 N2          9.5794   15.7096    0.9164 N.4       1 <0>        -0.3718
     26 C21         8.8528   16.2065   -0.2582 C.3       1 <0>        -0.0118
     27 C22         8.7602   17.7326   -0.1974 C.3       1 <0>         0.0590
     28 H1          8.2311   18.0294    0.7081 H         1 <0>         0.0903
     29 C23        10.1728   18.3240   -0.1813 C.3       1 <0>         0.0254
     30 H2         10.6848   18.0703   -1.1095 H         1 <0>         0.0916
     31 C24        10.9458   17.7417    1.0056 C.3       1 <0>         0.1124
     32 H3         10.4620   18.0387    1.9361 H         1 <0>         0.0964
     33 C25        10.9573   16.2152    0.9002 C.3       1 <0>         0.0361
     34 H4         11.4416   15.9193   -0.0304 H         1 <0>         0.1586
     35 C26        11.7290   15.6287    2.0841 C.3       1 <0>         0.0560
     36 O4         11.1375   16.0746    3.3061 O.3       1 <0>        -0.5786
     37 O5         12.2879   18.2322    0.9879 O.3       1 <0>        -0.5407
     38 O6         10.0945   19.7449   -0.0517 O.3       1 <0>        -0.5473
     39 O7          8.0536   18.2138   -1.3425 O.3       1 <0>        -0.5409
     40 H5         -1.0761   -0.6498    5.1865 H         1 <0>         0.2274
     41 H6         -1.0492    2.5506    2.4863 H         1 <0>         0.0921
     42 H7         -1.7258    3.2987    3.9529 H         1 <0>         0.0920
     43 H8         -1.3729    4.6150    2.3765 H         1 <0>         0.1398
     44 H9         -0.9839    6.8430    1.4182 H         1 <0>         0.1394
     45 H10         2.9343    6.8995    3.1738 H         1 <0>         0.1428
     46 H11         2.5281    4.6751    4.1334 H         1 <0>         0.1418
     47 H12         3.5056    6.9137    1.4086 H         1 <0>         0.1478
     48 H13         5.8001    7.7661    1.1868 H         1 <0>         0.1464
     49 H14         4.3271   11.7880    1.3946 H         1 <0>         0.1296
     50 H15         2.0308   10.9367    1.6035 H         1 <0>         0.1419
     51 H16         6.0795   12.2928    1.2228 H         1 <0>         0.4037
     52 H17         8.7944   11.8123    1.8352 H         1 <0>         0.0820
     53 H18         8.6148   11.8374    0.0645 H         1 <0>         0.0821
     54 H19         7.5639   14.0791    0.2030 H         1 <0>         0.0973
     55 H20         7.7435   14.0539    1.9737 H         1 <0>         0.0990
     56 H21        10.2036   13.8723    1.7216 H         1 <0>         0.1440
     57 H22        10.0240   13.8975   -0.0491 H         1 <0>         0.1404
     58 H23         9.3818   15.9108   -1.1641 H         1 <0>         0.1435
     59 H24         7.8488   15.7822   -0.2700 H         1 <0>         0.1492
     60 H25        11.6921   14.5403    2.0385 H         1 <0>         0.0789
     61 H26        12.7668   15.9592    2.0409 H         1 <0>         0.1061
     62 H27        11.5766   15.7407    4.1004 H         1 <0>         0.4116
     63 H28        12.3556   19.1949    1.0483 H         1 <0>         0.4115
     64 H29         9.6122   20.1793   -0.7685 H         1 <0>         0.3957
     65 H30         7.9572   19.1756   -1.3696 H         1 <0>         0.4027
     66 H31         9.1159   16.0261    1.7548 H         1 <0>         0.4314
@<TRIPOS>BOND
     1    1    2 3
     2    1   40 1
     3    2    3 1
     4    3    4 1
     5    3   41 1
     6    3   42 1
     7    4    5 1
     8    5   10 ar
     9    5    6 ar
    10    6    7 ar
    11    6   43 1
    12    7    8 ar
    13    7   44 1
    14    8    9 ar
    15    8   11 1
    16    9   10 ar
    17    9   45 1
    18   10   46 1
    19   11   12 2
    20   11   13 1
    21   13   18 ar
    22   13   14 ar
    23   14   15 ar
    24   14   47 1
    25   15   16 ar
    26   15   48 1
    27   16   17 ar
    28   16   19 1
    29   17   18 ar
    30   17   49 1
    31   18   50 1
    32   19   20 2
    33   19   21 am
    34   21   22 1
    35   21   51 1
    36   22   23 1
    37   22   52 1
    38   22   53 1
    39   23   24 1
    40   23   54 1
    41   23   55 1
    42   24   25 1
    43   24   56 1
    44   24   57 1
    45   25   33 1
    46   25   26 1
    47   25   66 1
    48   26   27 1
    49   26   58 1
    50   26   59 1
    51   27   28 1
    52   27   29 1
    53   27   39 1
    54   29   30 1
    55   29   31 1
    56   29   38 1
    57   31   32 1
    58   31   33 1
    59   31   37 1
    60   33   34 1
    61   33   35 1
    62   35   36 1
    63   35   60 1
    64   35   61 1
    65   36   62 1
    66   37   63 1
    67   38   64 1
    68   39   65 1
@<TRIPOS>MOLECULE
CHEMBL258515
   58    60     0     0     0
SMALL
USER_CHARGES

@<TRIPOS>ATOM
      1 C1         -0.0369    1.4913   -0.2049 C.3       1 <0>        -0.1811
      2 C2         -0.0000   -0.0222    0.0163 C.3       1 <0>         0.0832
      3 N1          0.7417   -0.3183    1.2444 N.pl3     1 <0>        -0.5751
      4 C3          0.0359   -0.3950    2.5259 C.3       1 <0>         0.0999
      5 C4         -0.4312   -1.8321    2.7657 C.3       1 <0>        -0.1802
      6 C5          2.1127   -0.5261    1.1939 C.ar      1 <0>         0.4966
      7 C6          2.8056   -0.8141    2.3787 C.ar      1 <0>        -0.2256
      8 C7          4.1516   -1.0204    2.3441 C.ar      1 <0>         0.0988
      9 C8          4.8093   -0.9357    1.0994 C.ar      1 <0>        -0.0923
     10 C9          6.1936   -1.1379    0.9944 C.ar      1 <0>        -0.0676
     11 C10         6.8006   -1.0473   -0.2391 C.ar      1 <0>         0.1566
     12 C11         6.0485   -0.7557   -1.3820 C.ar      1 <0>        -0.0622
     13 C12         4.7057   -0.5555   -1.3037 C.ar      1 <0>        -0.1229
     14 C13         4.0535   -0.6413   -0.0614 C.ar      1 <0>         0.1434
     15 N2          2.7316   -0.4535    0.0340 N.ar      1 <0>        -0.5274
     16 N3          8.1816   -1.2482   -0.3495 N.am      1 <0>        -0.6769
     17 C14         8.8011   -2.1299    0.4599 C.2       1 <0>         0.5229
     18 O1          8.1507   -2.8185    1.2174 O.2       1 <0>        -0.5108
     19 C15        10.3020   -2.2603    0.4236 C.3       1 <0>        -0.1044
     20 C16        10.7442   -2.6744   -0.9813 C.3       1 <0>        -0.1124
     21 C17        12.2681   -2.8067   -1.0181 C.3       1 <0>        -0.1144
     22 C18        12.7122   -3.8685   -0.0100 C.3       1 <0>        -0.0955
     23 C19        12.2700   -3.4545    1.3949 C.3       1 <0>        -0.1166
     24 C20        10.7462   -3.3221    1.4317 C.3       1 <0>        -0.1003
     25 C21        14.2360   -4.0009   -0.0468 C.3       1 <0>        -0.1509
     26 C22         4.9184   -1.3308    3.6038 C.3       1 <0>        -0.1436
     27 H1          0.9812    1.8702   -0.2950 H         1 <0>         0.0583
     28 H2         -0.5887    1.7116   -1.1187 H         1 <0>         0.0897
     29 H3         -0.5293    1.9703    0.6413 H         1 <0>         0.0760
     30 H4         -1.0181   -0.4011    0.1063 H         1 <0>         0.1157
     31 H5          0.4924   -0.5012   -0.8300 H         1 <0>         0.0808
     32 H6          0.7075   -0.0925    3.3293 H         1 <0>         0.0987
     33 H7         -0.8281    0.2692    2.5052 H         1 <0>         0.1075
     34 H8         -0.9563   -1.8892    3.7191 H         1 <0>         0.0883
     35 H9         -1.1028   -2.1347    1.9623 H         1 <0>         0.0676
     36 H10         0.4328   -2.4963    2.7864 H         1 <0>         0.0645
     37 H11         2.2732   -0.8718    3.3165 H         1 <0>         0.1791
     38 H12         6.7789   -1.3626    1.8738 H         1 <0>         0.1653
     39 H13         6.5415   -0.6882   -2.3406 H         1 <0>         0.1549
     40 H14         4.1403   -0.3309   -2.1960 H         1 <0>         0.1547
     41 H15         8.6926   -0.7528   -1.0086 H         1 <0>         0.4206
     42 H16        10.7562   -1.3032    0.6802 H         1 <0>         0.1070
     43 H17        10.2901   -3.6315   -1.2379 H         1 <0>         0.0714
     44 H18        10.4278   -1.9179   -1.6995 H         1 <0>         0.0662
     45 H19        12.5831   -3.1017   -2.0191 H         1 <0>         0.0706
     46 H20        12.7222   -1.8496   -0.7616 H         1 <0>         0.0677
     47 H21        12.2581   -4.8256   -0.2666 H         1 <0>         0.0715
     48 H22        12.5865   -4.2109    2.1131 H         1 <0>         0.0707
     49 H23        12.7242   -2.4974    1.6515 H         1 <0>         0.0654
     50 H24        10.4312   -3.0271    2.4326 H         1 <0>         0.0715
     51 H25        10.2921   -4.2792    1.1752 H         1 <0>         0.0721
     52 H26        14.6902   -3.0438    0.2097 H         1 <0>         0.0557
     53 H27        14.5525   -4.7573    0.6713 H         1 <0>         0.0572
     54 H28        14.5511   -4.2959   -1.0478 H         1 <0>         0.0564
     55 H29         4.9454   -2.4098    3.7561 H         1 <0>         0.1099
     56 H30         5.9360   -0.9512    3.5125 H         1 <0>         0.0932
     57 H31         4.4283   -0.8561    4.4538 H         1 <0>         0.0968
     58 H32         2.2202   -0.2565   -0.7664 H         1 <0>         0.4338
@<TRIPOS>BOND
     1    1    2 1
     2    1   27 1
     3    1   28 1
     4    1   29 1
     5    2    3 1
     6    2   30 1
     7    2   31 1
     8    3    4 1
     9    3    6 1
    10    4    5 1
    11    4   32 1
    12    4   33 1
    13    5   34 1
    14    5   35 1
    15    5   36 1
    16    6   15 ar
    17    6    7 ar
    18    7    8 ar
    19    7   37 1
    20    8    9 ar
    21    8   26 1
    22    9   14 ar
    23    9   10 ar
    24   10   11 ar
    25   10   38 1
    26   11   12 ar
    27   11   16 1
    28   12   13 ar
    29   12   39 1
    30   13   14 ar
    31   13   40 1
    32   14   15 ar
    33   15   58 1
    34   16   17 am
    35   16   41 1
    36   17   18 2
    37   17   19 1
    38   19   24 1
    39   19   20 1
    40   19   42 1
    41   20   21 1
    42   20   43 1
    43   20   44 1
    44   21   22 1
    45   21   45 1
    46   21   46 1
    47   22   23 1
    48   22   25 1
    49   22   47 1
    50   23   24 1
    51   23   48 1
    52   23   49 1
    53   24   50 1
    54   24   51 1
    55   25   52 1
    56   25   53 1
    57   25   54 1
    58   26   55 1
    59   26   56 1
    60   26   57 1
@<TRIPOS>MOLECULE
CHEMBL258515__1
   57    59     0     0     0
SMALL
USER_CHARGES

@<TRIPOS>ATOM
      1 C1         -0.0778    1.1583   -0.3341 C.3       1 <0>        -0.1746
      2 C2         -0.0518   -0.3553   -0.1119 C.3       1 <0>         0.1186
      3 N1          0.6849   -0.6557    1.1182 N.pl3     1 <0>        -0.6034
      4 C3         -0.0245   -0.7268    2.3981 C.3       1 <0>         0.1255
      5 C4         -0.5019   -2.1605    2.6376 C.3       1 <0>        -0.1659
      6 C5          2.0545   -0.8729    1.0711 C.ar      1 <0>         0.4298
      7 C6          2.7351   -0.6919   -0.1416 C.ar      1 <0>        -0.2188
      8 C7          4.0797   -0.9014   -0.2026 C.ar      1 <0>         0.0107
      9 C8          4.7485   -1.2989    0.9738 C.ar      1 <0>        -0.1299
     10 C9          6.1322   -1.5306    0.9794 C.ar      1 <0>        -0.0799
     11 C10         6.7504   -1.9174    2.1483 C.ar      1 <0>         0.1132
     12 C11         6.0100   -2.0801    3.3241 C.ar      1 <0>        -0.1036
     13 C12         4.6680   -1.8614    3.3417 C.ar      1 <0>        -0.0951
     14 C13         4.0049   -1.4648    2.1674 C.ar      1 <0>         0.1747
     15 N2          2.6854   -1.2390    2.1674 N.ar      1 <0>        -0.5478
     16 N3          8.1308   -2.1499    2.1594 N.am      1 <0>        -0.6722
     17 C14         8.9436   -1.4195    1.3705 C.2       1 <0>         0.5154
     18 O1          8.4929   -0.4982    0.7232 O.2       1 <0>        -0.5179
     19 C15        10.4123   -1.7477    1.2927 C.3       1 <0>        -0.1038
     20 C16        11.0372   -1.6227    2.6837 C.3       1 <0>        -0.1121
     21 C17        12.5284   -1.9558    2.6047 C.3       1 <0>        -0.1128
     22 C18        13.2183   -0.9829    1.6463 C.3       1 <0>        -0.0956
     23 C19        12.5934   -1.1079    0.2554 C.3       1 <0>        -0.1149
     24 C20        11.1022   -0.7748    0.3344 C.3       1 <0>        -0.0999
     25 C21        14.7095   -1.3161    1.5674 C.3       1 <0>        -0.1490
     26 C22         4.8333   -0.7139   -1.4941 C.3       1 <0>        -0.1202
     27 H1          0.9430    1.5302   -0.4219 H         1 <0>         0.0587
     28 H2         -0.6259    1.3818   -1.2493 H         1 <0>         0.0676
     29 H3         -0.5689    1.6412    0.5107 H         1 <0>         0.0588
     30 H4         -1.0727   -0.7272   -0.0240 H         1 <0>         0.0805
     31 H5          0.4393   -0.8381   -0.9567 H         1 <0>         0.0770
     32 H6          0.6473   -0.4283    3.2029 H         1 <0>         0.0842
     33 H7         -0.8839   -0.0567    2.3749 H         1 <0>         0.0694
     34 H8         -1.0297   -2.2134    3.5898 H         1 <0>         0.0628
     35 H9         -1.1737   -2.4590    1.8328 H         1 <0>         0.0503
     36 H10         0.3575   -2.8306    2.6608 H         1 <0>         0.0605
     37 H11         2.1943   -0.3872   -1.0254 H         1 <0>         0.1353
     38 H12         6.7082   -1.4070    0.0742 H         1 <0>         0.1399
     39 H13         6.5116   -2.3843    4.2309 H         1 <0>         0.1299
     40 H14         4.1116   -1.9921    4.2581 H         1 <0>         0.1364
     41 H15         8.5023   -2.8367    2.7350 H         1 <0>         0.4100
     42 H16        10.5380   -2.7672    0.9282 H         1 <0>         0.1008
     43 H17        10.9115   -0.6032    3.0482 H         1 <0>         0.0701
     44 H18        10.5457   -2.3158    3.3664 H         1 <0>         0.0667
     45 H19        12.9736   -1.8668    3.5956 H         1 <0>         0.0675
     46 H20        12.6541   -2.9754    2.2402 H         1 <0>         0.0657
     47 H21        13.0926    0.0366    2.0108 H         1 <0>         0.0710
     48 H22        13.0849   -0.4148   -0.4274 H         1 <0>         0.0672
     49 H23        12.7191   -2.1275   -0.1091 H         1 <0>         0.0635
     50 H24        10.6570   -0.8638   -0.6566 H         1 <0>         0.0705
     51 H25        10.9765    0.2448    0.6989 H         1 <0>         0.0710
     52 H26        14.8352   -2.3356    1.2029 H         1 <0>         0.0546
     53 H27        15.2010   -0.6229    0.8846 H         1 <0>         0.0552
     54 H28        15.1547   -1.2270    2.5583 H         1 <0>         0.0546
     55 H29         5.1794    0.3171   -1.5664 H         1 <0>         0.0823
     56 H30         5.6901   -1.3873   -1.5159 H         1 <0>         0.0741
     57 H31         4.1752   -0.9360   -2.3342 H         1 <0>         0.0737
@<TRIPOS>BOND
     1    1    2 1
     2    1   27 1
     3    1   28 1
     4    1   29 1
     5    2    3 1
     6    2   30 1
     7    2   31 1
     8    3    4 1
     9    3    6 1
    10    4    5 1
    11    4   32 1
    12    4   33 1
    13    5   34 1
    14    5   35 1
    15    5   36 1
    16    6   15 ar
    17    6    7 ar
    18    7    8 ar
    19    7   37 1
    20    8    9 ar
    21    8   26 1
    22    9   14 ar
    23    9   10 ar
    24   10   11 ar
    25   10   38 1
    26   11   12 ar
    27   11   16 1
    28   12   13 ar
    29   12   39 1
    30   13   14 ar
    31   13   40 1
    32   14   15 ar
    33   16   17 am
    34   16   41 1
    35   17   18 2
    36   17   19 1
    37   19   24 1
    38   19   20 1
    39   19   42 1
    40   20   21 1
    41   20   43 1
    42   20   44 1
    43   21   22 1
    44   21   45 1
    45   21   46 1
    46   22   23 1
    47   22   25 1
    48   22   47 1
    49   23   24 1
    50   23   48 1
    51   23   49 1
    52   24   50 1
    53   24   51 1
    54   25   52 1
    55   25   53 1
    56   25   54 1
    57   26   55 1
    58   26   56 1
    59   26   57 1
@<TRIPOS>MOLECULE
CHEMBL57497
   77    78     0     0     0
SMALL
USER_CHARGES

@<TRIPOS>ATOM
      1 C1         -0.0187    1.5258    0.0104 C.3       1 <0>        -0.1550
      2 C2          0.0021   -0.0041    0.0020 C.3       1 <0>        -0.1264
      3 C3         -1.4333   -0.5336    0.0129 C.3       1 <0>        -0.1211
      4 C4         -1.4126   -2.0635    0.0045 C.3       1 <0>        -0.1218
      5 C5         -2.8479   -2.5931    0.0153 C.3       1 <0>        -0.1200
      6 C6         -2.8272   -4.1229    0.0069 C.3       1 <0>        -0.1200
      7 C7         -4.2626   -4.6525    0.0178 C.3       1 <0>        -0.1199
      8 C8         -4.2418   -6.1823    0.0094 C.3       1 <0>        -0.1036
      9 C9         -5.6772   -6.7119    0.0202 C.3       1 <0>        -0.1395
     10 C10        -5.6568   -8.2187    0.0119 C.2       1 <0>         0.5153
     11 O1         -4.5984   -8.8108   -0.0014 O.2       1 <0>        -0.4920
     12 N1         -6.8147   -8.9084    0.0193 N.am      1 <0>        -0.7505
     13 C11        -6.7948  -10.3733    0.0112 C.3       1 <0>         0.0963
     14 H1         -5.9426  -10.7283    0.5907 H         1 <0>         0.1157
     15 C12        -8.0892  -10.9043    0.6304 C.3       1 <0>        -0.0188
     16 N2         -8.2633  -10.3282    1.9705 N.4       1 <0>        -0.4998
     17 C13        -9.5062  -10.8381    2.5650 C.3       1 <0>         0.0870
     18 C14       -10.6767  -10.3618    1.7556 C.2       1 <0>        -0.1907
     19 C15       -11.7786   -9.9151    2.2673 C.2       1 <0>        -0.0775
     20 C16       -12.0355   -9.8011    3.7414 C.3       1 <0>         0.1049
     21 C17       -11.0321  -10.6557    4.5189 C.3       1 <0>         0.0927
     22 C18        -9.6225  -10.3360    4.0058 C.3       1 <0>         0.0942
     23 O2         -9.4076   -8.9237    4.0412 O.3       1 <0>        -0.5625
     24 O3        -11.3169  -12.0403    4.3100 O.3       1 <0>        -0.5538
     25 O4        -13.3617  -10.2502    4.0271 O.3       1 <0>        -0.5535
     26 C19       -12.8711   -9.4820    1.3240 C.3       1 <0>         0.0941
     27 O5        -12.4365   -9.6660   -0.0248 O.3       1 <0>        -0.5729
     28 C20        -6.6759  -10.8738   -1.4297 C.3       1 <0>         0.1476
     29 H2         -7.5282  -10.5188   -2.0091 H         1 <0>         0.1166
     30 C21        -5.4009  -10.3508   -2.0396 C.ar      1 <0>        -0.1155
     31 C22        -4.2136  -11.0330   -1.8505 C.ar      1 <0>        -0.0915
     32 C23        -3.0441  -10.5533   -2.4099 C.ar      1 <0>        -0.1052
     33 C24        -3.0620   -9.3915   -3.1588 C.ar      1 <0>        -0.1044
     34 C25        -4.2494   -8.7097   -3.3486 C.ar      1 <0>        -0.1121
     35 C26        -5.4197   -9.1918   -2.7928 C.ar      1 <0>        -0.1085
     36 O6         -6.6565  -12.3026   -1.4375 O.3       1 <0>        -0.5458
     37 H3          1.0039    1.9031    0.0027 H         1 <0>         0.0549
     38 H4         -0.5459    1.8868   -0.8726 H         1 <0>         0.0537
     39 H5         -0.5289    1.8773    0.9072 H         1 <0>         0.0534
     40 H6          0.5123   -0.3556   -0.8948 H         1 <0>         0.0607
     41 H7          0.5293   -0.3651    0.8851 H         1 <0>         0.0604
     42 H8         -1.9435   -0.1821    0.9097 H         1 <0>         0.0604
     43 H9         -1.9605   -0.1726   -0.8702 H         1 <0>         0.0608
     44 H10        -0.9024   -2.4150   -0.8923 H         1 <0>         0.0613
     45 H11        -0.8854   -2.4246    0.8875 H         1 <0>         0.0609
     46 H12        -3.3581   -2.2415    0.9121 H         1 <0>         0.0603
     47 H13        -3.3751   -2.2320   -0.8677 H         1 <0>         0.0610
     48 H14        -2.3170   -4.4744   -0.8899 H         1 <0>         0.0626
     49 H15        -2.3000   -4.4840    0.8900 H         1 <0>         0.0617
     50 H16        -4.7728   -4.3010    0.9146 H         1 <0>         0.0613
     51 H17        -4.7898   -4.2914   -0.8653 H         1 <0>         0.0627
     52 H18        -3.7316   -6.5338   -0.8874 H         1 <0>         0.0723
     53 H19        -3.7146   -6.5434    0.8924 H         1 <0>         0.0689
     54 H20        -6.1874   -6.3604    0.9170 H         1 <0>         0.0932
     55 H21        -6.2044   -6.3508   -0.8628 H         1 <0>         0.0965
     56 H22        -7.6612   -8.4349    0.0299 H         1 <0>         0.4016
     57 H23        -8.9344  -10.6239    0.0018 H         1 <0>         0.1432
     58 H24        -8.0371  -11.9904    0.7058 H         1 <0>         0.1546
     59 H25        -7.4810  -10.5878    2.5524 H         1 <0>         0.4286
     60 H26        -9.4873  -11.9279    2.5625 H         1 <0>         0.1654
     61 H27       -10.5944  -10.3934    0.6792 H         1 <0>         0.1493
     62 H28       -11.9355   -8.7594    4.0461 H         1 <0>         0.0921
     63 H29       -11.0971  -10.4213    5.5814 H         1 <0>         0.0912
     64 H30        -8.8828  -10.8380    4.6295 H         1 <0>         0.1037
     65 H31        -9.4671   -8.5389    4.9263 H         1 <0>         0.4114
     66 H32       -12.2005  -12.3079    4.5977 H         1 <0>         0.4066
     67 H33       -14.0532   -9.7466    3.5761 H         1 <0>         0.3932
     68 H34       -13.7641  -10.0809    1.5029 H         1 <0>         0.0751
     69 H35       -13.0999   -8.4295    1.4916 H         1 <0>         0.0722
     70 H36       -13.0912   -9.4072   -0.6878 H         1 <0>         0.3981
     71 H37        -4.1997  -11.9407   -1.2654 H         1 <0>         0.1128
     72 H38        -2.1164  -11.0859   -2.2615 H         1 <0>         0.1225
     73 H39        -2.1481   -9.0163   -3.5952 H         1 <0>         0.1227
     74 H40        -4.2633   -7.8018   -3.9334 H         1 <0>         0.1213
     75 H41        -6.3481   -8.6612   -2.9442 H         1 <0>         0.1136
     76 H42        -5.9228  -12.6888   -0.9399 H         1 <0>         0.3814
     77 H43        -8.3116   -9.3228    1.9007 H         1 <0>         0.4302
@<TRIPOS>BOND
     1    1    2 1
     2    1   37 1
     3    1   38 1
     4    1   39 1
     5    2    3 1
     6    2   40 1
     7    2   41 1
     8    3    4 1
     9    3   42 1
    10    3   43 1
    11    4    5 1
    12    4   44 1
    13    4   45 1
    14    5    6 1
    15    5   46 1
    16    5   47 1
    17    6    7 1
    18    6   48 1
    19    6   49 1
    20    7    8 1
    21    7   50 1
    22    7   51 1
    23    8    9 1
    24    8   52 1
    25    8   53 1
    26    9   10 1
    27    9   54 1
    28    9   55 1
    29   10   11 2
    30   10   12 am
    31   12   13 1
    32   12   56 1
    33   13   14 1
    34   13   15 1
    35   13   28 1
    36   15   16 1
    37   15   57 1
    38   15   58 1
    39   16   17 1
    40   16   59 1
    41   16   77 1
    42   17   22 1
    43   17   18 1
    44   17   60 1
    45   18   19 2
    46   18   61 1
    47   19   20 1
    48   19   26 1
    49   20   21 1
    50   20   25 1
    51   20   62 1
    52   21   22 1
    53   21   24 1
    54   21   63 1
    55   22   23 1
    56   22   64 1
    57   23   65 1
    58   24   66 1
    59   25   67 1
    60   26   27 1
    61   26   68 1
    62   26   69 1
    63   27   70 1
    64   28   29 1
    65   28   30 1
    66   28   36 1
    67   30   35 ar
    68   30   31 ar
    69   31   32 ar
    70   31   71 1
    71   32   33 ar
    72   32   72 1
    73   33   34 ar
    74   33   73 1
    75   34   35 ar
    76   34   74 1
    77   35   75 1
    78   36   76 1
@<TRIPOS>MOLECULE
CHEMBL57497__1
   76    77     0     0     0
SMALL
USER_CHARGES

@<TRIPOS>ATOM
      1 C1         -0.0187    1.5258    0.0104 C.3       1 <0>        -0.1541
      2 C2          0.0021   -0.0041    0.0020 C.3       1 <0>        -0.1263
      3 C3          0.7182   -0.4975   -1.2568 C.3       1 <0>        -0.1209
      4 C4          0.7390   -2.0273   -1.2652 C.3       1 <0>        -0.1214
      5 C5          1.4551   -2.5207   -2.5240 C.3       1 <0>        -0.1198
      6 C6          1.4758   -4.0506   -2.5324 C.3       1 <0>        -0.1193
      7 C7          2.1920   -4.5440   -3.7912 C.3       1 <0>        -0.1195
      8 C8          2.2127   -6.0738   -3.7996 C.3       1 <0>        -0.1002
      9 C9          2.9289   -6.5673   -5.0584 C.3       1 <0>        -0.1383
     10 C10         2.9493   -8.0741   -5.0667 C.2       1 <0>         0.5132
     11 O1          2.4411   -8.6925   -4.1555 O.2       1 <0>        -0.5221
     12 N1          3.5323   -8.7345   -6.0867 N.am      1 <0>        -0.7107
     13 C11         3.5522  -10.1994   -6.0948 C.3       1 <0>         0.1277
     14 H1          2.6300  -10.5777   -5.6537 H         1 <0>         0.0938
     15 C12         3.6711  -10.6999   -7.5357 C.3       1 <0>         0.0404
     16 N2          2.5886  -10.1243   -8.3449 N.3       1 <0>        -0.6628
     17 C13         2.6710  -10.5839   -9.7377 C.3       1 <0>         0.1304
     18 C14         3.6334   -9.7142  -10.4924 C.2       1 <0>        -0.0775
     19 C15         3.4234   -9.2693  -11.6897 C.2       1 <0>        -0.1732
     20 C16         2.1836   -9.5524  -12.4864 C.3       1 <0>         0.1240
     21 C17         1.4324  -10.7433  -11.8872 C.3       1 <0>         0.0890
     22 C18         1.2830  -10.5131  -10.3782 C.3       1 <0>         0.1115
     23 O2          0.7108   -9.2249  -10.1434 O.3       1 <0>        -0.5346
     24 O3          2.1721  -11.9438  -12.1192 O.3       1 <0>        -0.5514
     25 O4          2.5458   -9.8513  -13.8361 O.3       1 <0>        -0.5650
     26 C19         4.4902   -8.4136  -12.3227 C.3       1 <0>         0.1117
     27 O5          5.5810   -8.2611  -11.4123 O.3       1 <0>        -0.5670
     28 C20         4.7485  -10.6977   -5.2814 C.3       1 <0>         0.1377
     29 H2          5.6706  -10.3194   -5.7225 H         1 <0>         0.0644
     30 C21         4.6313  -10.2047   -3.8622 C.ar      1 <0>        -0.0647
     31 C22         3.8849  -10.9172   -2.9424 C.ar      1 <0>        -0.0723
     32 C23         3.7775  -10.4650   -1.6405 C.ar      1 <0>        -0.1159
     33 C24         4.4169   -9.3005   -1.2583 C.ar      1 <0>        -0.1138
     34 C25         5.1641   -8.5885   -2.1779 C.ar      1 <0>        -0.1186
     35 C26         5.2750   -9.0430   -3.4787 C.ar      1 <0>        -0.1105
     36 O6          4.7678  -12.1265   -5.2893 O.3       1 <0>        -0.5548
     37 H3          1.0039    1.9031    0.0027 H         1 <0>         0.0532
     38 H4         -0.5459    1.8868   -0.8726 H         1 <0>         0.0531
     39 H5         -0.5289    1.8773    0.9072 H         1 <0>         0.0532
     40 H6          0.5293   -0.3651    0.8851 H         1 <0>         0.0603
     41 H7         -1.0205   -0.3814    0.0098 H         1 <0>         0.0602
     42 H8          0.1910   -0.1364   -2.1398 H         1 <0>         0.0603
     43 H9          1.7408   -0.1202   -1.2645 H         1 <0>         0.0603
     44 H10         1.2661   -2.3884   -0.3821 H         1 <0>         0.0606
     45 H11        -0.2836   -2.4046   -1.2575 H         1 <0>         0.0606
     46 H12         0.9279   -2.1597   -3.4071 H         1 <0>         0.0601
     47 H13         2.4777   -2.1435   -2.5317 H         1 <0>         0.0601
     48 H14         2.0030   -4.4117   -1.6494 H         1 <0>         0.0613
     49 H15         0.4533   -4.4279   -2.5247 H         1 <0>         0.0611
     50 H16         1.6648   -4.1829   -4.6743 H         1 <0>         0.0603
     51 H17         3.2146   -4.1667   -3.7990 H         1 <0>         0.0602
     52 H18         2.7399   -6.4349   -2.9166 H         1 <0>         0.0691
     53 H19         1.1901   -6.4511   -3.7919 H         1 <0>         0.0667
     54 H20         2.4017   -6.2062   -5.9415 H         1 <0>         0.0895
     55 H21         3.9515   -6.1900   -5.0662 H         1 <0>         0.0869
     56 H22         3.9388   -8.2400   -6.8155 H         1 <0>         0.4038
     57 H23         4.6335  -10.3962   -7.9476 H         1 <0>         0.0815
     58 H24         3.5966  -11.7872   -7.5499 H         1 <0>         0.0471
     59 H25         1.6865  -10.3378   -7.9464 H         1 <0>         0.3489
     60 H26         3.0260  -11.6142   -9.7578 H         1 <0>         0.0775
     61 H27         4.5586   -9.4423  -10.0061 H         1 <0>         0.1239
     62 H28         1.5378   -8.6744  -12.4738 H         1 <0>         0.0747
     63 H29         0.4464  -10.8226  -12.3451 H         1 <0>         0.0686
     64 H30         0.6427  -11.2851   -9.9513 H         1 <0>         0.0711
     65 H31        -0.1712   -9.1112  -10.5232 H         1 <0>         0.3773
     66 H32         2.3177  -12.1415  -13.0545 H         1 <0>         0.3910
     67 H33         3.0173   -9.1358  -14.2844 H         1 <0>         0.3831
     68 H34         4.8437   -8.8906  -13.2368 H         1 <0>         0.0552
     69 H35         4.0761   -7.4338  -12.5609 H         1 <0>         0.0531
     70 H36         6.3061   -7.7204  -11.7543 H         1 <0>         0.3832
     71 H37         3.3853  -11.8270   -3.2410 H         1 <0>         0.1177
     72 H38         3.1937  -11.0213   -0.9221 H         1 <0>         0.1161
     73 H39         4.3323   -8.9468   -0.2414 H         1 <0>         0.1157
     74 H40         5.6633   -7.6785   -1.8794 H         1 <0>         0.1160
     75 H41         5.8618   -8.4887   -4.1962 H         1 <0>         0.1110
     76 H42         4.8418  -12.5140   -6.1722 H         1 <0>         0.3773
@<TRIPOS>BOND
     1    1    2 1
     2    1   37 1
     3    1   38 1
     4    1   39 1
     5    2    3 1
     6    2   40 1
     7    2   41 1
     8    3    4 1
     9    3   42 1
    10    3   43 1
    11    4    5 1
    12    4   44 1
    13    4   45 1
    14    5    6 1
    15    5   46 1
    16    5   47 1
    17    6    7 1
    18    6   48 1
    19    6   49 1
    20    7    8 1
    21    7   50 1
    22    7   51 1
    23    8    9 1
    24    8   52 1
    25    8   53 1
    26    9   10 1
    27    9   54 1
    28    9   55 1
    29   10   11 2
    30   10   12 am
    31   12   13 1
    32   12   56 1
    33   13   14 1
    34   13   15 1
    35   13   28 1
    36   15   16 1
    37   15   57 1
    38   15   58 1
    39   16   17 1
    40   16   59 1
    41   17   22 1
    42   17   18 1
    43   17   60 1
    44   18   19 2
    45   18   61 1
    46   19   20 1
    47   19   26 1
    48   20   21 1
    49   20   25 1
    50   20   62 1
    51   21   22 1
    52   21   24 1
    53   21   63 1
    54   22   23 1
    55   22   64 1
    56   23   65 1
    57   24   66 1
    58   25   67 1
    59   26   27 1
    60   26   68 1
    61   26   69 1
    62   27   70 1
    63   28   29 1
    64   28   30 1
    65   28   36 1
    66   30   35 ar
    67   30   31 ar
    68   31   32 ar
    69   31   71 1
    70   32   33 ar
    71   32   72 1
    72   33   34 ar
    73   33   73 1
    74   34   35 ar
    75   34   74 1
    76   35   75 1
    77   36   76 1
@<TRIPOS>MOLECULE
CHEMBL57497__2
   77    78     0     0     0
SMALL
USER_CHARGES

@<TRIPOS>ATOM
      1 C1         -0.0187    1.5258    0.0104 C.3       1 <0>        -0.1550
      2 C2          0.0021   -0.0041    0.0020 C.3       1 <0>        -0.1264
      3 C3         -1.4333   -0.5336    0.0129 C.3       1 <0>        -0.1210
      4 C4         -1.4126   -2.0635    0.0045 C.3       1 <0>        -0.1219
      5 C5         -2.8479   -2.5931    0.0153 C.3       1 <0>        -0.1200
      6 C6         -2.8272   -4.1229    0.0069 C.3       1 <0>        -0.1202
      7 C7         -4.2626   -4.6525    0.0178 C.3       1 <0>        -0.1197
      8 C8         -4.2418   -6.1823    0.0094 C.3       1 <0>        -0.1041
      9 C9         -5.6772   -6.7119    0.0202 C.3       1 <0>        -0.1391
     10 C10        -5.6568   -8.2187    0.0119 C.2       1 <0>         0.5140
     11 O1         -4.5984   -8.8108   -0.0014 O.2       1 <0>        -0.4899
     12 N1         -6.8147   -8.9084    0.0193 N.am      1 <0>        -0.7515
     13 C11        -6.7948  -10.3733    0.0112 C.3       1 <0>         0.0956
     14 H1         -5.9426  -10.7283    0.5907 H         1 <0>         0.1166
     15 C12        -8.0892  -10.9043    0.6304 C.3       1 <0>        -0.0170
     16 N2         -8.2633  -10.3282    1.9705 N.4       1 <0>        -0.5026
     17 C13        -9.5062  -10.8381    2.5650 C.3       1 <0>         0.0837
     18 C14       -10.6767  -10.3618    1.7556 C.2       1 <0>        -0.1909
     19 C15       -11.7786   -9.9151    2.2673 C.2       1 <0>        -0.0854
     20 C16       -12.0355   -9.8011    3.7414 C.3       1 <0>         0.0998
     21 C17       -11.0321  -10.6557    4.5189 C.3       1 <0>         0.0932
     22 C18        -9.6225  -10.3360    4.0058 C.3       1 <0>         0.0972
     23 O2         -8.6528  -10.9941    4.8235 O.3       1 <0>        -0.5534
     24 O3        -11.3169  -12.0403    4.3100 O.3       1 <0>        -0.5472
     25 O4        -13.3617  -10.2502    4.0271 O.3       1 <0>        -0.5487
     26 C19       -12.8711   -9.4820    1.3240 C.3       1 <0>         0.0939
     27 O5        -12.4365   -9.6660   -0.0248 O.3       1 <0>        -0.5731
     28 C20        -6.6759  -10.8738   -1.4297 C.3       1 <0>         0.1480
     29 H2         -7.5282  -10.5188   -2.0091 H         1 <0>         0.1166
     30 C21        -5.4009  -10.3508   -2.0396 C.ar      1 <0>        -0.1159
     31 C22        -4.2136  -11.0330   -1.8505 C.ar      1 <0>        -0.0913
     32 C23        -3.0441  -10.5533   -2.4099 C.ar      1 <0>        -0.1050
     33 C24        -3.0620   -9.3915   -3.1588 C.ar      1 <0>        -0.1044
     34 C25        -4.2494   -8.7097   -3.3486 C.ar      1 <0>        -0.1123
     35 C26        -5.4197   -9.1918   -2.7928 C.ar      1 <0>        -0.1087
     36 O6         -6.6565  -12.3026   -1.4375 O.3       1 <0>        -0.5457
     37 H3          1.0039    1.9031    0.0027 H         1 <0>         0.0549
     38 H4         -0.5459    1.8868   -0.8726 H         1 <0>         0.0537
     39 H5         -0.5289    1.8773    0.9072 H         1 <0>         0.0534
     40 H6          0.5123   -0.3556   -0.8948 H         1 <0>         0.0608
     41 H7          0.5293   -0.3651    0.8851 H         1 <0>         0.0605
     42 H8         -1.9435   -0.1821    0.9097 H         1 <0>         0.0604
     43 H9         -1.9605   -0.1726   -0.8702 H         1 <0>         0.0608
     44 H10        -0.9024   -2.4150   -0.8923 H         1 <0>         0.0614
     45 H11        -0.8854   -2.4246    0.8875 H         1 <0>         0.0609
     46 H12        -3.3581   -2.2415    0.9121 H         1 <0>         0.0602
     47 H13        -3.3751   -2.2320   -0.8677 H         1 <0>         0.0610
     48 H14        -2.3170   -4.4744   -0.8899 H         1 <0>         0.0628
     49 H15        -2.3000   -4.4840    0.8900 H         1 <0>         0.0619
     50 H16        -4.7728   -4.3010    0.9146 H         1 <0>         0.0610
     51 H17        -4.7898   -4.2914   -0.8653 H         1 <0>         0.0627
     52 H18        -3.7316   -6.5338   -0.8874 H         1 <0>         0.0727
     53 H19        -3.7146   -6.5434    0.8924 H         1 <0>         0.0692
     54 H20        -6.1874   -6.3604    0.9170 H         1 <0>         0.0923
     55 H21        -6.2044   -6.3508   -0.8628 H         1 <0>         0.0969
     56 H22        -7.6612   -8.4349    0.0299 H         1 <0>         0.4006
     57 H23        -8.9344  -10.6239    0.0018 H         1 <0>         0.1435
     58 H24        -8.0371  -11.9904    0.7058 H         1 <0>         0.1557
     59 H25        -7.4810  -10.5878    2.5524 H         1 <0>         0.4365
     60 H26        -9.4873  -11.9279    2.5625 H         1 <0>         0.1651
     61 H27       -10.5944  -10.3934    0.6792 H         1 <0>         0.1558
     62 H28       -11.9355   -8.7594    4.0461 H         1 <0>         0.0906
     63 H29       -11.0971  -10.4213    5.5814 H         1 <0>         0.0921
     64 H30        -9.4585   -9.2587    4.0328 H         1 <0>         0.0951
     65 H31        -8.6711  -10.7223    5.7514 H         1 <0>         0.4084
     66 H32       -12.2005  -12.3079    4.5977 H         1 <0>         0.4019
     67 H33       -14.0532   -9.7466    3.5761 H         1 <0>         0.3940
     68 H34       -13.7641  -10.0809    1.5029 H         1 <0>         0.0772
     69 H35       -13.0999   -8.4295    1.4916 H         1 <0>         0.0738
     70 H36       -13.0912   -9.4072   -0.6878 H         1 <0>         0.3995
     71 H37        -4.1997  -11.9407   -1.2654 H         1 <0>         0.1131
     72 H38        -2.1164  -11.0859   -2.2615 H         1 <0>         0.1227
     73 H39        -2.1481   -9.0163   -3.5952 H         1 <0>         0.1227
     74 H40        -4.2633   -7.8018   -3.9334 H         1 <0>         0.1212
     75 H41        -6.3481   -8.6612   -2.9442 H         1 <0>         0.1135
     76 H42        -5.9228  -12.6888   -0.9399 H         1 <0>         0.3820
     77 H43        -8.3116   -9.3228    1.9007 H         1 <0>         0.4194
@<TRIPOS>BOND
     1    1    2 1
     2    1   37 1
     3    1   38 1
     4    1   39 1
     5    2    3 1
     6    2   40 1
     7    2   41 1
     8    3    4 1
     9    3   42 1
    10    3   43 1
    11    4    5 1
    12    4   44 1
    13    4   45 1
    14    5    6 1
    15    5   46 1
    16    5   47 1
    17    6    7 1
    18    6   48 1
    19    6   49 1
    20    7    8 1
    21    7   50 1
    22    7   51 1
    23    8    9 1
    24    8   52 1
    25    8   53 1
    26    9   10 1
    27    9   54 1
    28    9   55 1
    29   10   11 2
    30   10   12 am
    31   12   13 1
    32   12   56 1
    33   13   14 1
    34   13   15 1
    35   13   28 1
    36   15   16 1
    37   15   57 1
    38   15   58 1
    39   16   17 1
    40   16   59 1
    41   16   77 1
    42   17   22 1
    43   17   18 1
    44   17   60 1
    45   18   19 2
    46   18   61 1
    47   19   20 1
    48   19   26 1
    49   20   21 1
    50   20   25 1
    51   20   62 1
    52   21   22 1
    53   21   24 1
    54   21   63 1
    55   22   23 1
    56   22   64 1
    57   23   65 1
    58   24   66 1
    59   25   67 1
    60   26   27 1
    61   26   68 1
    62   26   69 1
    63   27   70 1
    64   28   29 1
    65   28   30 1
    66   28   36 1
    67   30   35 ar
    68   30   31 ar
    69   31   32 ar
    70   31   71 1
    71   32   33 ar
    72   32   72 1
    73   33   34 ar
    74   33   73 1
    75   34   35 ar
    76   34   74 1
    77   35   75 1
    78   36   76 1
@<TRIPOS>MOLECULE
CHEMBL57497__3
   76    77     0     0     0
SMALL
USER_CHARGES

@<TRIPOS>ATOM
      1 C1         -0.0187    1.5258    0.0104 C.3       1 <0>        -0.1541
      2 C2          0.0021   -0.0041    0.0020 C.3       1 <0>        -0.1264
      3 C3          0.7182   -0.4975   -1.2568 C.3       1 <0>        -0.1209
      4 C4          0.7390   -2.0273   -1.2652 C.3       1 <0>        -0.1215
      5 C5          1.4551   -2.5207   -2.5240 C.3       1 <0>        -0.1197
      6 C6          1.4758   -4.0506   -2.5324 C.3       1 <0>        -0.1195
      7 C7          2.1920   -4.5440   -3.7912 C.3       1 <0>        -0.1194
      8 C8          2.2127   -6.0738   -3.7996 C.3       1 <0>        -0.1008
      9 C9          2.9289   -6.5673   -5.0584 C.3       1 <0>        -0.1382
     10 C10         2.9493   -8.0741   -5.0667 C.2       1 <0>         0.5118
     11 O1          2.4411   -8.6925   -4.1555 O.2       1 <0>        -0.5202
     12 N1          3.5323   -8.7345   -6.0867 N.am      1 <0>        -0.7122
     13 C11         3.5522  -10.1994   -6.0948 C.3       1 <0>         0.1267
     14 H1          2.6300  -10.5777   -5.6537 H         1 <0>         0.0949
     15 C12         3.6711  -10.6999   -7.5357 C.3       1 <0>         0.0435
     16 N2          2.5886  -10.1243   -8.3449 N.3       1 <0>        -0.6733
     17 C13         2.6710  -10.5839   -9.7377 C.3       1 <0>         0.1289
     18 C14         3.6334   -9.7142  -10.4924 C.2       1 <0>        -0.0790
     19 C15         3.4234   -9.2693  -11.6897 C.2       1 <0>        -0.1812
     20 C16         2.1836   -9.5524  -12.4864 C.3       1 <0>         0.1188
     21 C17         1.4324  -10.7433  -11.8872 C.3       1 <0>         0.0901
     22 C18         1.2830  -10.5131  -10.3782 C.3       1 <0>         0.1117
     23 O2          0.4436  -11.5252   -9.8186 O.3       1 <0>        -0.5540
     24 O3          2.1721  -11.9438  -12.1192 O.3       1 <0>        -0.5446
     25 O4          2.5458   -9.8513  -13.8361 O.3       1 <0>        -0.5601
     26 C19         4.4902   -8.4136  -12.3227 C.3       1 <0>         0.1116
     27 O5          5.5810   -8.2611  -11.4123 O.3       1 <0>        -0.5672
     28 C20         4.7485  -10.6977   -5.2814 C.3       1 <0>         0.1381
     29 H2          5.6706  -10.3194   -5.7225 H         1 <0>         0.0642
     30 C21         4.6313  -10.2047   -3.8622 C.ar      1 <0>        -0.0648
     31 C22         3.8849  -10.9172   -2.9424 C.ar      1 <0>        -0.0721
     32 C23         3.7775  -10.4650   -1.6405 C.ar      1 <0>        -0.1157
     33 C24         4.4169   -9.3005   -1.2583 C.ar      1 <0>        -0.1138
     34 C25         5.1641   -8.5885   -2.1779 C.ar      1 <0>        -0.1189
     35 C26         5.2750   -9.0430   -3.4787 C.ar      1 <0>        -0.1108
     36 O6          4.7678  -12.1265   -5.2893 O.3       1 <0>        -0.5545
     37 H3          1.0039    1.9031    0.0027 H         1 <0>         0.0532
     38 H4         -0.5459    1.8868   -0.8726 H         1 <0>         0.0531
     39 H5         -0.5289    1.8773    0.9072 H         1 <0>         0.0533
     40 H6          0.5293   -0.3651    0.8851 H         1 <0>         0.0603
     41 H7         -1.0205   -0.3814    0.0098 H         1 <0>         0.0603
     42 H8          0.1910   -0.1364   -2.1398 H         1 <0>         0.0602
     43 H9          1.7408   -0.1202   -1.2645 H         1 <0>         0.0603
     44 H10         1.2661   -2.3884   -0.3821 H         1 <0>         0.0608
     45 H11        -0.2836   -2.4046   -1.2575 H         1 <0>         0.0606
     46 H12         0.9279   -2.1597   -3.4071 H         1 <0>         0.0599
     47 H13         2.4777   -2.1435   -2.5317 H         1 <0>         0.0601
     48 H14         2.0030   -4.4117   -1.6494 H         1 <0>         0.0615
     49 H15         0.4533   -4.4279   -2.5247 H         1 <0>         0.0611
     50 H16         1.6648   -4.1829   -4.6743 H         1 <0>         0.0600
     51 H17         3.2146   -4.1667   -3.7990 H         1 <0>         0.0603
     52 H18         2.7399   -6.4349   -2.9166 H         1 <0>         0.0696
     53 H19         1.1901   -6.4511   -3.7919 H         1 <0>         0.0669
     54 H20         2.4017   -6.2062   -5.9415 H         1 <0>         0.0886
     55 H21         3.9515   -6.1900   -5.0662 H         1 <0>         0.0874
     56 H22         3.9388   -8.2400   -6.8155 H         1 <0>         0.4030
     57 H23         4.6335  -10.3962   -7.9476 H         1 <0>         0.0809
     58 H24         3.5966  -11.7872   -7.5499 H         1 <0>         0.0503
     59 H25         1.6865  -10.3378   -7.9464 H         1 <0>         0.3534
     60 H26         3.0260  -11.6142   -9.7578 H         1 <0>         0.0773
     61 H27         4.5586   -9.4423  -10.0061 H         1 <0>         0.1305
     62 H28         1.5378   -8.6744  -12.4738 H         1 <0>         0.0724
     63 H29         0.4464  -10.8226  -12.3451 H         1 <0>         0.0697
     64 H30         0.8465   -9.5305  -10.1991 H         1 <0>         0.0824
     65 H31        -0.4530  -11.5371  -10.1806 H         1 <0>         0.3842
     66 H32         2.3177  -12.1415  -13.0545 H         1 <0>         0.3858
     67 H33         3.0173   -9.1358  -14.2844 H         1 <0>         0.3839
     68 H34         4.8437   -8.8906  -13.2368 H         1 <0>         0.0574
     69 H35         4.0761   -7.4338  -12.5609 H         1 <0>         0.0546
     70 H36         6.3061   -7.7204  -11.7543 H         1 <0>         0.3846
     71 H37         3.3853  -11.8270   -3.2410 H         1 <0>         0.1182
     72 H38         3.1937  -11.0213   -0.9221 H         1 <0>         0.1162
     73 H39         4.3323   -8.9468   -0.2414 H         1 <0>         0.1157
     74 H40         5.6633   -7.6785   -1.8794 H         1 <0>         0.1159
     75 H41         5.8618   -8.4887   -4.1962 H         1 <0>         0.1109
     76 H42         4.8418  -12.5140   -6.1722 H         1 <0>         0.3779
@<TRIPOS>BOND
     1    1    2 1
     2    1   37 1
     3    1   38 1
     4    1   39 1
     5    2    3 1
     6    2   40 1
     7    2   41 1
     8    3    4 1
     9    3   42 1
    10    3   43 1
    11    4    5 1
    12    4   44 1
    13    4   45 1
    14    5    6 1
    15    5   46 1
    16    5   47 1
    17    6    7 1
    18    6   48 1
    19    6   49 1
    20    7    8 1
    21    7   50 1
    22    7   51 1
    23    8    9 1
    24    8   52 1
    25    8   53 1
    26    9   10 1
    27    9   54 1
    28    9   55 1
    29   10   11 2
    30   10   12 am
    31   12   13 1
    32   12   56 1
    33   13   14 1
    34   13   15 1
    35   13   28 1
    36   15   16 1
    37   15   57 1
    38   15   58 1
    39   16   17 1
    40   16   59 1
    41   17   22 1
    42   17   18 1
    43   17   60 1
    44   18   19 2
    45   18   61 1
    46   19   20 1
    47   19   26 1
    48   20   21 1
    49   20   25 1
    50   20   62 1
    51   21   22 1
    52   21   24 1
    53   21   63 1
    54   22   23 1
    55   22   64 1
    56   23   65 1
    57   24   66 1
    58   25   67 1
    59   26   27 1
    60   26   68 1
    61   26   69 1
    62   27   70 1
    63   28   29 1
    64   28   30 1
    65   28   36 1
    66   30   35 ar
    67   30   31 ar
    68   31   32 ar
    69   31   71 1
    70   32   33 ar
    71   32   72 1
    72   33   34 ar
    73   33   73 1
    74   34   35 ar
    75   34   74 1
    76   35   75 1
    77   36   76 1
@<TRIPOS>MOLECULE
CHEMBL57497__4
   77    78     0     0     0
SMALL
USER_CHARGES

@<TRIPOS>ATOM
      1 C1         -0.0187    1.5258    0.0104 C.3       1 <0>        -0.1550
      2 C2          0.0021   -0.0041    0.0020 C.3       1 <0>        -0.1264
      3 C3         -1.4333   -0.5336    0.0129 C.3       1 <0>        -0.1211
      4 C4         -1.4126   -2.0635    0.0045 C.3       1 <0>        -0.1218
      5 C5         -2.8479   -2.5931    0.0153 C.3       1 <0>        -0.1201
      6 C6         -2.8272   -4.1229    0.0069 C.3       1 <0>        -0.1200
      7 C7         -4.2626   -4.6525    0.0178 C.3       1 <0>        -0.1200
      8 C8         -4.2418   -6.1823    0.0094 C.3       1 <0>        -0.1036
      9 C9         -5.6772   -6.7119    0.0202 C.3       1 <0>        -0.1396
     10 C10        -5.6568   -8.2187    0.0119 C.2       1 <0>         0.5156
     11 O1         -4.5984   -8.8108   -0.0014 O.2       1 <0>        -0.4917
     12 N1         -6.8147   -8.9084    0.0193 N.am      1 <0>        -0.7508
     13 C11        -6.7948  -10.3733    0.0112 C.3       1 <0>         0.0961
     14 H1         -5.9426  -10.7283    0.5907 H         1 <0>         0.1162
     15 C12        -8.0892  -10.9043    0.6304 C.3       1 <0>        -0.0194
     16 N2         -8.2633  -10.3282    1.9705 N.4       1 <0>        -0.4970
     17 C13        -9.5062  -10.8381    2.5650 C.3       1 <0>         0.0825
     18 C14       -10.6767  -10.3618    1.7556 C.2       1 <0>        -0.2039
     19 C15       -11.7786   -9.9151    2.2673 C.2       1 <0>        -0.0731
     20 C16       -12.0359   -9.8020    3.7414 C.3       1 <0>         0.1041
     21 C17       -11.0323  -10.6565    4.5187 C.3       1 <0>         0.0924
     22 C18        -9.6225  -10.3360    4.0058 C.3       1 <0>         0.0957
     23 O2         -9.4076   -8.9237    4.0412 O.3       1 <0>        -0.5670
     24 O3        -11.1179  -10.3500    5.9118 O.3       1 <0>        -0.5545
     25 O4        -13.3619  -10.2518    4.0266 O.3       1 <0>        -0.5536
     26 C19       -12.8711   -9.4820    1.3240 C.3       1 <0>         0.0931
     27 O5        -12.4365   -9.6660   -0.0248 O.3       1 <0>        -0.5731
     28 C20        -6.6759  -10.8738   -1.4297 C.3       1 <0>         0.1479
     29 H2         -7.5282  -10.5188   -2.0091 H         1 <0>         0.1168
     30 C21        -5.4009  -10.3508   -2.0396 C.ar      1 <0>        -0.1160
     31 C22        -4.2136  -11.0330   -1.8505 C.ar      1 <0>        -0.0915
     32 C23        -3.0441  -10.5533   -2.4099 C.ar      1 <0>        -0.1051
     33 C24        -3.0620   -9.3915   -3.1588 C.ar      1 <0>        -0.1041
     34 C25        -4.2494   -8.7097   -3.3486 C.ar      1 <0>        -0.1120
     35 C26        -5.4197   -9.1918   -2.7928 C.ar      1 <0>        -0.1084
     36 O6         -6.6565  -12.3026   -1.4375 O.3       1 <0>        -0.5461
     37 H3          1.0039    1.9031    0.0027 H         1 <0>         0.0548
     38 H4         -0.5459    1.8868   -0.8726 H         1 <0>         0.0537
     39 H5         -0.5289    1.8773    0.9072 H         1 <0>         0.0534
     40 H6          0.5123   -0.3556   -0.8948 H         1 <0>         0.0607
     41 H7          0.5293   -0.3651    0.8851 H         1 <0>         0.0604
     42 H8         -1.9435   -0.1821    0.9097 H         1 <0>         0.0605
     43 H9         -1.9605   -0.1726   -0.8702 H         1 <0>         0.0608
     44 H10        -0.9024   -2.4150   -0.8923 H         1 <0>         0.0612
     45 H11        -0.8854   -2.4246    0.8875 H         1 <0>         0.0609
     46 H12        -3.3581   -2.2415    0.9121 H         1 <0>         0.0604
     47 H13        -3.3751   -2.2320   -0.8677 H         1 <0>         0.0610
     48 H14        -2.3170   -4.4744   -0.8899 H         1 <0>         0.0625
     49 H15        -2.3000   -4.4840    0.8900 H         1 <0>         0.0618
     50 H16        -4.7728   -4.3010    0.9146 H         1 <0>         0.0615
     51 H17        -4.7898   -4.2914   -0.8653 H         1 <0>         0.0626
     52 H18        -3.7316   -6.5338   -0.8874 H         1 <0>         0.0722
     53 H19        -3.7146   -6.5434    0.8924 H         1 <0>         0.0690
     54 H20        -6.1874   -6.3604    0.9170 H         1 <0>         0.0935
     55 H21        -6.2044   -6.3508   -0.8628 H         1 <0>         0.0966
     56 H22        -7.6612   -8.4349    0.0299 H         1 <0>         0.4018
     57 H23        -8.9344  -10.6239    0.0018 H         1 <0>         0.1443
     58 H24        -8.0371  -11.9904    0.7058 H         1 <0>         0.1552
     59 H25        -7.4810  -10.5878    2.5524 H         1 <0>         0.4302
     60 H26        -9.4873  -11.9279    2.5625 H         1 <0>         0.1614
     61 H27       -10.5944  -10.3934    0.6792 H         1 <0>         0.1533
     62 H28       -11.9364   -8.7604    4.0467 H         1 <0>         0.0957
     63 H29       -11.2490  -11.7127    4.3587 H         1 <0>         0.0877
     64 H30        -8.8828  -10.8380    4.6295 H         1 <0>         0.1040
     65 H31        -9.4671   -8.5389    4.9263 H         1 <0>         0.4160
     66 H32       -11.9892  -10.5141    6.2978 H         1 <0>         0.4063
     67 H33       -14.0535   -9.7484    3.5757 H         1 <0>         0.3920
     68 H34       -13.7641  -10.0809    1.5029 H         1 <0>         0.0773
     69 H35       -13.0999   -8.4295    1.4916 H         1 <0>         0.0750
     70 H36       -13.0912   -9.4072   -0.6878 H         1 <0>         0.3993
     71 H37        -4.1997  -11.9407   -1.2654 H         1 <0>         0.1127
     72 H38        -2.1164  -11.0859   -2.2615 H         1 <0>         0.1226
     73 H39        -2.1481   -9.0163   -3.5952 H         1 <0>         0.1228
     74 H40        -4.2633   -7.8018   -3.9334 H         1 <0>         0.1214
     75 H41        -6.3481   -8.6612   -2.9442 H         1 <0>         0.1137
     76 H42        -5.9228  -12.6888   -0.9399 H         1 <0>         0.3815
     77 H43        -8.3116   -9.3228    1.9007 H         1 <0>         0.4327
@<TRIPOS>BOND
     1    1    2 1
     2    1   37 1
     3    1   38 1
     4    1   39 1
     5    2    3 1
     6    2   40 1
     7    2   41 1
     8    3    4 1
     9    3   42 1
    10    3   43 1
    11    4    5 1
    12    4   44 1
    13    4   45 1
    14    5    6 1
    15    5   46 1
    16    5   47 1
    17    6    7 1
    18    6   48 1
    19    6   49 1
    20    7    8 1
    21    7   50 1
    22    7   51 1
    23    8    9 1
    24    8   52 1
    25    8   53 1
    26    9   10 1
    27    9   54 1
    28    9   55 1
    29   10   11 2
    30   10   12 am
    31   12   13 1
    32   12   56 1
    33   13   14 1
    34   13   15 1
    35   13   28 1
    36   15   16 1
    37   15   57 1
    38   15   58 1
    39   16   17 1
    40   16   59 1
    41   16   77 1
    42   17   22 1
    43   17   18 1
    44   17   60 1
    45   18   19 2
    46   18   61 1
    47   19   20 1
    48   19   26 1
    49   20   21 1
    50   20   25 1
    51   20   62 1
    52   21   22 1
    53   21   24 1
    54   21   63 1
    55   22   23 1
    56   22   64 1
    57   23   65 1
    58   24   66 1
    59   25   67 1
    60   26   27 1
    61   26   68 1
    62   26   69 1
    63   27   70 1
    64   28   29 1
    65   28   30 1
    66   28   36 1
    67   30   35 ar
    68   30   31 ar
    69   31   32 ar
    70   31   71 1
    71   32   33 ar
    72   32   72 1
    73   33   34 ar
    74   33   73 1
    75   34   35 ar
    76   34   74 1
    77   35   75 1
    78   36   76 1
@<TRIPOS>MOLECULE
CHEMBL57497__5
   76    77     0     0     0
SMALL
USER_CHARGES

@<TRIPOS>ATOM
      1 C1         -0.0187    1.5258    0.0104 C.3       1 <0>        -0.1541
      2 C2          0.0021   -0.0041    0.0020 C.3       1 <0>        -0.1263
      3 C3          0.7182   -0.4975   -1.2568 C.3       1 <0>        -0.1209
      4 C4          0.7390   -2.0273   -1.2652 C.3       1 <0>        -0.1214
      5 C5          1.4551   -2.5207   -2.5240 C.3       1 <0>        -0.1198
      6 C6          1.4758   -4.0506   -2.5324 C.3       1 <0>        -0.1193
      7 C7          2.1920   -4.5440   -3.7912 C.3       1 <0>        -0.1196
      8 C8          2.2127   -6.0738   -3.7996 C.3       1 <0>        -0.1003
      9 C9          2.9289   -6.5673   -5.0584 C.3       1 <0>        -0.1384
     10 C10         2.9493   -8.0741   -5.0667 C.2       1 <0>         0.5134
     11 O1          2.4411   -8.6925   -4.1555 O.2       1 <0>        -0.5216
     12 N1          3.5323   -8.7345   -6.0867 N.am      1 <0>        -0.7112
     13 C11         3.5522  -10.1994   -6.0948 C.3       1 <0>         0.1274
     14 H1          2.6300  -10.5777   -5.6537 H         1 <0>         0.0944
     15 C12         3.6711  -10.6999   -7.5357 C.3       1 <0>         0.0397
     16 N2          2.5886  -10.1243   -8.3449 N.3       1 <0>        -0.6581
     17 C13         2.6710  -10.5839   -9.7377 C.3       1 <0>         0.1244
     18 C14         3.6334   -9.7142  -10.4924 C.2       1 <0>        -0.0906
     19 C15         3.4234   -9.2693  -11.6897 C.2       1 <0>        -0.1693
     20 C16         2.1840   -9.5532  -12.4868 C.3       1 <0>         0.1241
     21 C17         1.4330  -10.7440  -11.8873 C.3       1 <0>         0.0861
     22 C18         1.2830  -10.5131  -10.3782 C.3       1 <0>         0.1172
     23 O2          0.7108   -9.2249  -10.1434 O.3       1 <0>        -0.5396
     24 O3          0.1406  -10.8486  -12.4881 O.3       1 <0>        -0.5618
     25 O4          2.5469   -9.8526  -13.8361 O.3       1 <0>        -0.5654
     26 C19         4.4902   -8.4136  -12.3227 C.3       1 <0>         0.1109
     27 O5          5.5810   -8.2611  -11.4123 O.3       1 <0>        -0.5672
     28 C20         4.7485  -10.6977   -5.2814 C.3       1 <0>         0.1380
     29 H2          5.6706  -10.3194   -5.7225 H         1 <0>         0.0646
     30 C21         4.6313  -10.2047   -3.8622 C.ar      1 <0>        -0.0653
     31 C22         3.8849  -10.9172   -2.9424 C.ar      1 <0>        -0.0722
     32 C23         3.7775  -10.4650   -1.6405 C.ar      1 <0>        -0.1158
     33 C24         4.4169   -9.3005   -1.2583 C.ar      1 <0>        -0.1134
     34 C25         5.1641   -8.5885   -2.1779 C.ar      1 <0>        -0.1186
     35 C26         5.2750   -9.0430   -3.4787 C.ar      1 <0>        -0.1103
     36 O6          4.7678  -12.1265   -5.2893 O.3       1 <0>        -0.5544
     37 H3          1.0039    1.9031    0.0027 H         1 <0>         0.0531
     38 H4         -0.5459    1.8868   -0.8726 H         1 <0>         0.0532
     39 H5         -0.5289    1.8773    0.9072 H         1 <0>         0.0532
     40 H6          0.5293   -0.3651    0.8851 H         1 <0>         0.0603
     41 H7         -1.0205   -0.3814    0.0098 H         1 <0>         0.0603
     42 H8          0.1910   -0.1364   -2.1398 H         1 <0>         0.0603
     43 H9          1.7408   -0.1202   -1.2645 H         1 <0>         0.0603
     44 H10         1.2661   -2.3884   -0.3821 H         1 <0>         0.0606
     45 H11        -0.2836   -2.4046   -1.2575 H         1 <0>         0.0606
     46 H12         0.9279   -2.1597   -3.4071 H         1 <0>         0.0601
     47 H13         2.4777   -2.1435   -2.5317 H         1 <0>         0.0600
     48 H14         2.0030   -4.4117   -1.6494 H         1 <0>         0.0612
     49 H15         0.4533   -4.4279   -2.5247 H         1 <0>         0.0612
     50 H16         1.6648   -4.1829   -4.6743 H         1 <0>         0.0604
     51 H17         3.2146   -4.1667   -3.7990 H         1 <0>         0.0602
     52 H18         2.7399   -6.4349   -2.9166 H         1 <0>         0.0690
     53 H19         1.1901   -6.4511   -3.7919 H         1 <0>         0.0669
     54 H20         2.4017   -6.2062   -5.9415 H         1 <0>         0.0898
     55 H21         3.9515   -6.1900   -5.0662 H         1 <0>         0.0870
     56 H22         3.9388   -8.2400   -6.8155 H         1 <0>         0.4039
     57 H23         4.6335  -10.3962   -7.9476 H         1 <0>         0.0828
     58 H24         3.5966  -11.7872   -7.5499 H         1 <0>         0.0477
     59 H25         1.6865  -10.3378   -7.9464 H         1 <0>         0.3517
     60 H26         3.0260  -11.6142   -9.7578 H         1 <0>         0.0710
     61 H27         4.5586   -9.4423  -10.0061 H         1 <0>         0.1283
     62 H28         1.5379   -8.6754  -12.4749 H         1 <0>         0.0790
     63 H29         1.9975  -11.6596  -12.0635 H         1 <0>         0.0738
     64 H30         0.6427  -11.2851   -9.9513 H         1 <0>         0.0711
     65 H31        -0.1712   -9.1112  -10.5232 H         1 <0>         0.3828
     66 H32         0.1616  -10.9794  -13.4460 H         1 <0>         0.3917
     67 H33         3.0183   -9.1373  -14.2846 H         1 <0>         0.3819
     68 H34         4.8437   -8.8906  -13.2368 H         1 <0>         0.0573
     69 H35         4.0761   -7.4338  -12.5609 H         1 <0>         0.0560
     70 H36         6.3061   -7.7204  -11.7543 H         1 <0>         0.3844
     71 H37         3.3853  -11.8270   -3.2410 H         1 <0>         0.1177
     72 H38         3.1937  -11.0213   -0.9221 H         1 <0>         0.1162
     73 H39         4.3323   -8.9468   -0.2414 H         1 <0>         0.1159
     74 H40         5.6633   -7.6785   -1.8794 H         1 <0>         0.1161
     75 H41         5.8618   -8.4887   -4.1962 H         1 <0>         0.1111
     76 H42         4.8418  -12.5140   -6.1722 H         1 <0>         0.3766
@<TRIPOS>BOND
     1    1    2 1
     2    1   37 1
     3    1   38 1
     4    1   39 1
     5    2    3 1
     6    2   40 1
     7    2   41 1
     8    3    4 1
     9    3   42 1
    10    3   43 1
    11    4    5 1
    12    4   44 1
    13    4   45 1
    14    5    6 1
    15    5   46 1
    16    5   47 1
    17    6    7 1
    18    6   48 1
    19    6   49 1
    20    7    8 1
    21    7   50 1
    22    7   51 1
    23    8    9 1
    24    8   52 1
    25    8   53 1
    26    9   10 1
    27    9   54 1
    28    9   55 1
    29   10   11 2
    30   10   12 am
    31   12   13 1
    32   12   56 1
    33   13   14 1
    34   13   15 1
    35   13   28 1
    36   15   16 1
    37   15   57 1
    38   15   58 1
    39   16   17 1
    40   16   59 1
    41   17   22 1
    42   17   18 1
    43   17   60 1
    44   18   19 2
    45   18   61 1
    46   19   20 1
    47   19   26 1
    48   20   21 1
    49   20   25 1
    50   20   62 1
    51   21   22 1
    52   21   24 1
    53   21   63 1
    54   22   23 1
    55   22   64 1
    56   23   65 1
    57   24   66 1
    58   25   67 1
    59   26   27 1
    60   26   68 1
    61   26   69 1
    62   27   70 1
    63   28   29 1
    64   28   30 1
    65   28   36 1
    66   30   35 ar
    67   30   31 ar
    68   31   32 ar
    69   31   71 1
    70   32   33 ar
    71   32   72 1
    72   33   34 ar
    73   33   73 1
    74   34   35 ar
    75   34   74 1
    76   35   75 1
    77   36   76 1
@<TRIPOS>MOLECULE
CHEMBL57497__6
   77    78     0     0     0
SMALL
USER_CHARGES

@<TRIPOS>ATOM
      1 C1         -0.0187    1.5258    0.0104 C.3       1 <0>        -0.1550
      2 C2          0.0021   -0.0041    0.0020 C.3       1 <0>        -0.1264
      3 C3         -1.4333   -0.5336    0.0129 C.3       1 <0>        -0.1210
      4 C4         -1.4126   -2.0635    0.0045 C.3       1 <0>        -0.1218
      5 C5         -2.8479   -2.5931    0.0153 C.3       1 <0>        -0.1200
      6 C6         -2.8272   -4.1229    0.0069 C.3       1 <0>        -0.1202
      7 C7         -4.2626   -4.6525    0.0178 C.3       1 <0>        -0.1198
      8 C8         -4.2418   -6.1823    0.0094 C.3       1 <0>        -0.1041
      9 C9         -5.6772   -6.7119    0.0202 C.3       1 <0>        -0.1393
     10 C10        -5.6568   -8.2187    0.0119 C.2       1 <0>         0.5143
     11 O1         -4.5984   -8.8108   -0.0014 O.2       1 <0>        -0.4896
     12 N1         -6.8147   -8.9084    0.0193 N.am      1 <0>        -0.7518
     13 C11        -6.7948  -10.3733    0.0112 C.3       1 <0>         0.0954
     14 H1         -5.9426  -10.7283    0.5907 H         1 <0>         0.1171
     15 C12        -8.0892  -10.9043    0.6304 C.3       1 <0>        -0.0178
     16 N2         -8.2633  -10.3282    1.9705 N.4       1 <0>        -0.4999
     17 C13        -9.5062  -10.8381    2.5650 C.3       1 <0>         0.0802
     18 C14       -10.6767  -10.3618    1.7556 C.2       1 <0>        -0.2038
     19 C15       -11.7786   -9.9151    2.2673 C.2       1 <0>        -0.0810
     20 C16       -12.0355   -9.8011    3.7414 C.3       1 <0>         0.0986
     21 C17       -11.0321  -10.6557    4.5189 C.3       1 <0>         0.0946
     22 C18        -9.6225  -10.3360    4.0058 C.3       1 <0>         0.0986
     23 O2         -8.6528  -10.9941    4.8235 O.3       1 <0>        -0.5570
     24 O3        -11.1173  -10.3484    5.9119 O.3       1 <0>        -0.5542
     25 O4        -13.3617  -10.2502    4.0271 O.3       1 <0>        -0.5487
     26 C19       -12.8711   -9.4820    1.3240 C.3       1 <0>         0.0929
     27 O5        -12.4365   -9.6660   -0.0248 O.3       1 <0>        -0.5732
     28 C20        -6.6759  -10.8738   -1.4297 C.3       1 <0>         0.1483
     29 H2         -7.5282  -10.5188   -2.0091 H         1 <0>         0.1168
     30 C21        -5.4009  -10.3508   -2.0396 C.ar      1 <0>        -0.1164
     31 C22        -4.2136  -11.0330   -1.8505 C.ar      1 <0>        -0.0913
     32 C23        -3.0441  -10.5533   -2.4099 C.ar      1 <0>        -0.1049
     33 C24        -3.0620   -9.3915   -3.1588 C.ar      1 <0>        -0.1041
     34 C25        -4.2494   -8.7097   -3.3486 C.ar      1 <0>        -0.1122
     35 C26        -5.4197   -9.1918   -2.7928 C.ar      1 <0>        -0.1086
     36 O6         -6.6565  -12.3026   -1.4375 O.3       1 <0>        -0.5460
     37 H3          1.0039    1.9031    0.0027 H         1 <0>         0.0549
     38 H4         -0.5459    1.8868   -0.8726 H         1 <0>         0.0537
     39 H5         -0.5289    1.8773    0.9072 H         1 <0>         0.0534
     40 H6          0.5123   -0.3556   -0.8948 H         1 <0>         0.0607
     41 H7          0.5293   -0.3651    0.8851 H         1 <0>         0.0605
     42 H8         -1.9435   -0.1821    0.9097 H         1 <0>         0.0604
     43 H9         -1.9605   -0.1726   -0.8702 H         1 <0>         0.0607
     44 H10        -0.9024   -2.4150   -0.8923 H         1 <0>         0.0613
     45 H11        -0.8854   -2.4246    0.8875 H         1 <0>         0.0610
     46 H12        -3.3581   -2.2415    0.9121 H         1 <0>         0.0603
     47 H13        -3.3751   -2.2320   -0.8677 H         1 <0>         0.0610
     48 H14        -2.3170   -4.4744   -0.8899 H         1 <0>         0.0627
     49 H15        -2.3000   -4.4840    0.8900 H         1 <0>         0.0619
     50 H16        -4.7728   -4.3010    0.9146 H         1 <0>         0.0612
     51 H17        -4.7898   -4.2914   -0.8653 H         1 <0>         0.0627
     52 H18        -3.7316   -6.5338   -0.8874 H         1 <0>         0.0727
     53 H19        -3.7146   -6.5434    0.8924 H         1 <0>         0.0693
     54 H20        -6.1874   -6.3604    0.9170 H         1 <0>         0.0926
     55 H21        -6.2044   -6.3508   -0.8628 H         1 <0>         0.0970
     56 H22        -7.6612   -8.4349    0.0299 H         1 <0>         0.4007
     57 H23        -8.9344  -10.6239    0.0018 H         1 <0>         0.1445
     58 H24        -8.0371  -11.9904    0.7058 H         1 <0>         0.1564
     59 H25        -7.4810  -10.5878    2.5524 H         1 <0>         0.4381
     60 H26        -9.4873  -11.9279    2.5625 H         1 <0>         0.1604
     61 H27       -10.5944  -10.3934    0.6792 H         1 <0>         0.1598
     62 H28       -11.9355   -8.7594    4.0461 H         1 <0>         0.0940
     63 H29       -11.2493  -11.7118    4.3596 H         1 <0>         0.0886
     64 H30        -9.4585   -9.2587    4.0328 H         1 <0>         0.0893
     65 H31        -8.6711  -10.7223    5.7514 H         1 <0>         0.4167
     66 H32       -11.9886  -10.5119    6.2981 H         1 <0>         0.4075
     67 H33       -14.0532   -9.7466    3.5761 H         1 <0>         0.3929
     68 H34       -13.7641  -10.0809    1.5029 H         1 <0>         0.0795
     69 H35       -13.0999   -8.4295    1.4916 H         1 <0>         0.0766
     70 H36       -13.0912   -9.4072   -0.6878 H         1 <0>         0.4007
     71 H37        -4.1997  -11.9407   -1.2654 H         1 <0>         0.1131
     72 H38        -2.1164  -11.0859   -2.2615 H         1 <0>         0.1227
     73 H39        -2.1481   -9.0163   -3.5952 H         1 <0>         0.1228
     74 H40        -4.2633   -7.8018   -3.9334 H         1 <0>         0.1214
     75 H41        -6.3481   -8.6612   -2.9442 H         1 <0>         0.1135
     76 H42        -5.9228  -12.6888   -0.9399 H         1 <0>         0.3821
     77 H43        -8.3116   -9.3228    1.9007 H         1 <0>         0.4221
@<TRIPOS>BOND
     1    1    2 1
     2    1   37 1
     3    1   38 1
     4    1   39 1
     5    2    3 1
     6    2   40 1
     7    2   41 1
     8    3    4 1
     9    3   42 1
    10    3   43 1
    11    4    5 1
    12    4   44 1
    13    4   45 1
    14    5    6 1
    15    5   46 1
    16    5   47 1
    17    6    7 1
    18    6   48 1
    19    6   49 1
    20    7    8 1
    21    7   50 1
    22    7   51 1
    23    8    9 1
    24    8   52 1
    25    8   53 1
    26    9   10 1
    27    9   54 1
    28    9   55 1
    29   10   11 2
    30   10   12 am
    31   12   13 1
    32   12   56 1
    33   13   14 1
    34   13   15 1
    35   13   28 1
    36   15   16 1
    37   15   57 1
    38   15   58 1
    39   16   17 1
    40   16   59 1
    41   16   77 1
    42   17   22 1
    43   17   18 1
    44   17   60 1
    45   18   19 2
    46   18   61 1
    47   19   20 1
    48   19   26 1
    49   20   21 1
    50   20   25 1
    51   20   62 1
    52   21   22 1
    53   21   24 1
    54   21   63 1
    55   22   23 1
    56   22   64 1
    57   23   65 1
    58   24   66 1
    59   25   67 1
    60   26   27 1
    61   26   68 1
    62   26   69 1
    63   27   70 1
    64   28   29 1
    65   28   30 1
    66   28   36 1
    67   30   35 ar
    68   30   31 ar
    69   31   32 ar
    70   31   71 1
    71   32   33 ar
    72   32   72 1
    73   33   34 ar
    74   33   73 1
    75   34   35 ar
    76   34   74 1
    77   35   75 1
    78   36   76 1
@<TRIPOS>MOLECULE
CHEMBL57497__7
   76    77     0     0     0
SMALL
USER_CHARGES

@<TRIPOS>ATOM
      1 C1         -0.0187    1.5258    0.0104 C.3       1 <0>        -0.1541
      2 C2          0.0021   -0.0041    0.0020 C.3       1 <0>        -0.1264
      3 C3          0.7182   -0.4975   -1.2568 C.3       1 <0>        -0.1209
      4 C4          0.7390   -2.0273   -1.2652 C.3       1 <0>        -0.1215
      5 C5          1.4551   -2.5207   -2.5240 C.3       1 <0>        -0.1197
      6 C6          1.4758   -4.0506   -2.5324 C.3       1 <0>        -0.1195
      7 C7          2.1920   -4.5440   -3.7912 C.3       1 <0>        -0.1194
      8 C8          2.2127   -6.0738   -3.7996 C.3       1 <0>        -0.1008
      9 C9          2.9289   -6.5673   -5.0584 C.3       1 <0>        -0.1382
     10 C10         2.9493   -8.0741   -5.0667 C.2       1 <0>         0.5120
     11 O1          2.4411   -8.6925   -4.1555 O.2       1 <0>        -0.5197
     12 N1          3.5323   -8.7345   -6.0867 N.am      1 <0>        -0.7127
     13 C11         3.5522  -10.1994   -6.0948 C.3       1 <0>         0.1264
     14 H1          2.6300  -10.5777   -5.6537 H         1 <0>         0.0955
     15 C12         3.6711  -10.6999   -7.5357 C.3       1 <0>         0.0425
     16 N2          2.5886  -10.1243   -8.3449 N.3       1 <0>        -0.6687
     17 C13         2.6710  -10.5839   -9.7377 C.3       1 <0>         0.1239
     18 C14         3.6334   -9.7142  -10.4924 C.2       1 <0>        -0.0919
     19 C15         3.4234   -9.2693  -11.6897 C.2       1 <0>        -0.1772
     20 C16         2.1836   -9.5524  -12.4864 C.3       1 <0>         0.1182
     21 C17         1.4324  -10.7433  -11.8872 C.3       1 <0>         0.0892
     22 C18         1.2830  -10.5131  -10.3782 C.3       1 <0>         0.1172
     23 O2          0.4436  -11.5252   -9.8186 O.3       1 <0>        -0.5584
     24 O3          0.1398  -10.8472  -12.4875 O.3       1 <0>        -0.5613
     25 O4          2.5458   -9.8513  -13.8361 O.3       1 <0>        -0.5605
     26 C19         4.4902   -8.4136  -12.3227 C.3       1 <0>         0.1107
     27 O5          5.5810   -8.2611  -11.4123 O.3       1 <0>        -0.5674
     28 C20         4.7485  -10.6977   -5.2814 C.3       1 <0>         0.1383
     29 H2          5.6706  -10.3194   -5.7225 H         1 <0>         0.0645
     30 C21         4.6313  -10.2047   -3.8622 C.ar      1 <0>        -0.0654
     31 C22         3.8849  -10.9172   -2.9424 C.ar      1 <0>        -0.0720
     32 C23         3.7775  -10.4650   -1.6405 C.ar      1 <0>        -0.1156
     33 C24         4.4169   -9.3005   -1.2583 C.ar      1 <0>        -0.1135
     34 C25         5.1641   -8.5885   -2.1779 C.ar      1 <0>        -0.1189
     35 C26         5.2750   -9.0430   -3.4787 C.ar      1 <0>        -0.1106
     36 O6          4.7678  -12.1265   -5.2893 O.3       1 <0>        -0.5542
     37 H3          1.0039    1.9031    0.0027 H         1 <0>         0.0532
     38 H4         -0.5459    1.8868   -0.8726 H         1 <0>         0.0531
     39 H5         -0.5289    1.8773    0.9072 H         1 <0>         0.0533
     40 H6          0.5293   -0.3651    0.8851 H         1 <0>         0.0603
     41 H7         -1.0205   -0.3814    0.0098 H         1 <0>         0.0603
     42 H8          0.1910   -0.1364   -2.1398 H         1 <0>         0.0602
     43 H9          1.7408   -0.1202   -1.2645 H         1 <0>         0.0603
     44 H10         1.2661   -2.3884   -0.3821 H         1 <0>         0.0607
     45 H11        -0.2836   -2.4046   -1.2575 H         1 <0>         0.0607
     46 H12         0.9279   -2.1597   -3.4071 H         1 <0>         0.0600
     47 H13         2.4777   -2.1435   -2.5317 H         1 <0>         0.0601
     48 H14         2.0030   -4.4117   -1.6494 H         1 <0>         0.0615
     49 H15         0.4533   -4.4279   -2.5247 H         1 <0>         0.0612
     50 H16         1.6648   -4.1829   -4.6743 H         1 <0>         0.0601
     51 H17         3.2146   -4.1667   -3.7990 H         1 <0>         0.0603
     52 H18         2.7399   -6.4349   -2.9166 H         1 <0>         0.0695
     53 H19         1.1901   -6.4511   -3.7919 H         1 <0>         0.0670
     54 H20         2.4017   -6.2062   -5.9415 H         1 <0>         0.0889
     55 H21         3.9515   -6.1900   -5.0662 H         1 <0>         0.0875
     56 H22         3.9388   -8.2400   -6.8155 H         1 <0>         0.4031
     57 H23         4.6335  -10.3962   -7.9476 H         1 <0>         0.0822
     58 H24         3.5966  -11.7872   -7.5499 H         1 <0>         0.0509
     59 H25         1.6865  -10.3378   -7.9464 H         1 <0>         0.3562
     60 H26         3.0260  -11.6142   -9.7578 H         1 <0>         0.0703
     61 H27         4.5586   -9.4423  -10.0061 H         1 <0>         0.1350
     62 H28         1.5378   -8.6744  -12.4738 H         1 <0>         0.0765
     63 H29         1.9966  -11.6590  -12.0642 H         1 <0>         0.0747
     64 H30         0.8465   -9.5305  -10.1991 H         1 <0>         0.0761
     65 H31        -0.4530  -11.5371  -10.1806 H         1 <0>         0.3935
     66 H32         0.1603  -10.9775  -13.4455 H         1 <0>         0.3928
     67 H33         3.0173   -9.1358  -14.2844 H         1 <0>         0.3828
     68 H34         4.8437   -8.8906  -13.2368 H         1 <0>         0.0596
     69 H35         4.0761   -7.4338  -12.5609 H         1 <0>         0.0575
     70 H36         6.3061   -7.7204  -11.7543 H         1 <0>         0.3858
     71 H37         3.3853  -11.8270   -3.2410 H         1 <0>         0.1182
     72 H38         3.1937  -11.0213   -0.9221 H         1 <0>         0.1163
     73 H39         4.3323   -8.9468   -0.2414 H         1 <0>         0.1159
     74 H40         5.6633   -7.6785   -1.8794 H         1 <0>         0.1160
     75 H41         5.8618   -8.4887   -4.1962 H         1 <0>         0.1110
     76 H42         4.8418  -12.5140   -6.1722 H         1 <0>         0.3773
@<TRIPOS>BOND
     1    1    2 1
     2    1   37 1
     3    1   38 1
     4    1   39 1
     5    2    3 1
     6    2   40 1
     7    2   41 1
     8    3    4 1
     9    3   42 1
    10    3   43 1
    11    4    5 1
    12    4   44 1
    13    4   45 1
    14    5    6 1
    15    5   46 1
    16    5   47 1
    17    6    7 1
    18    6   48 1
    19    6   49 1
    20    7    8 1
    21    7   50 1
    22    7   51 1
    23    8    9 1
    24    8   52 1
    25    8   53 1
    26    9   10 1
    27    9   54 1
    28    9   55 1
    29   10   11 2
    30   10   12 am
    31   12   13 1
    32   12   56 1
    33   13   14 1
    34   13   15 1
    35   13   28 1
    36   15   16 1
    37   15   57 1
    38   15   58 1
    39   16   17 1
    40   16   59 1
    41   17   22 1
    42   17   18 1
    43   17   60 1
    44   18   19 2
    45   18   61 1
    46   19   20 1
    47   19   26 1
    48   20   21 1
    49   20   25 1
    50   20   62 1
    51   21   22 1
    52   21   24 1
    53   21   63 1
    54   22   23 1
    55   22   64 1
    56   23   65 1
    57   24   66 1
    58   25   67 1
    59   26   27 1
    60   26   68 1
    61   26   69 1
    62   27   70 1
    63   28   29 1
    64   28   30 1
    65   28   36 1
    66   30   35 ar
    67   30   31 ar
    68   31   32 ar
    69   31   71 1
    70   32   33 ar
    71   32   72 1
    72   33   34 ar
    73   33   73 1
    74   34   35 ar
    75   34   74 1
    76   35   75 1
    77   36   76 1
@<TRIPOS>MOLECULE
CHEMBL57497__8
   77    78     0     0     0
SMALL
USER_CHARGES

@<TRIPOS>ATOM
      1 C1         -0.0187    1.5258    0.0104 C.3       1 <0>        -0.1549
      2 C2          0.0021   -0.0041    0.0020 C.3       1 <0>        -0.1264
      3 C3         -1.4333   -0.5336    0.0129 C.3       1 <0>        -0.1211
      4 C4         -1.4126   -2.0635    0.0045 C.3       1 <0>        -0.1217
      5 C5         -2.8479   -2.5931    0.0153 C.3       1 <0>        -0.1201
      6 C6         -2.8272   -4.1229    0.0069 C.3       1 <0>        -0.1200
      7 C7         -4.2626   -4.6525    0.0178 C.3       1 <0>        -0.1199
      8 C8         -4.2418   -6.1823    0.0094 C.3       1 <0>        -0.1034
      9 C9         -5.6772   -6.7119    0.0202 C.3       1 <0>        -0.1396
     10 C10        -5.6568   -8.2187    0.0119 C.2       1 <0>         0.5157
     11 O1         -4.5984   -8.8108   -0.0014 O.2       1 <0>        -0.4924
     12 N1         -6.8147   -8.9084    0.0193 N.am      1 <0>        -0.7503
     13 C11        -6.7948  -10.3733    0.0112 C.3       1 <0>         0.0964
     14 H1         -5.9426  -10.7283    0.5907 H         1 <0>         0.1156
     15 C12        -8.0892  -10.9043    0.6304 C.3       1 <0>        -0.0189
     16 N2         -8.2633  -10.3282    1.9705 N.4       1 <0>        -0.4990
     17 C13        -9.5062  -10.8381    2.5650 C.3       1 <0>         0.0853
     18 C14       -10.6767  -10.3618    1.7556 C.2       1 <0>        -0.1781
     19 C15       -11.7786   -9.9151    2.2673 C.2       1 <0>        -0.0853
     20 C16       -12.0359   -9.8020    3.7414 C.3       1 <0>         0.1095
     21 C17       -11.0323  -10.6565    4.5187 C.3       1 <0>         0.0863
     22 C18        -9.6225  -10.3360    4.0058 C.3       1 <0>         0.0974
     23 O2         -9.4076   -8.9237    4.0412 O.3       1 <0>        -0.5483
     24 O3        -11.3164  -12.0412    4.3090 O.3       1 <0>        -0.5517
     25 O4        -11.9055   -8.4364    4.1417 O.3       1 <0>        -0.5391
     26 C19       -12.8711   -9.4820    1.3240 C.3       1 <0>         0.0972
     27 O5        -12.4365   -9.6660   -0.0248 O.3       1 <0>        -0.5742
     28 C20        -6.6759  -10.8738   -1.4297 C.3       1 <0>         0.1477
     29 H2         -7.5282  -10.5188   -2.0091 H         1 <0>         0.1165
     30 C21        -5.4009  -10.3508   -2.0396 C.ar      1 <0>        -0.1154
     31 C22        -4.2136  -11.0330   -1.8505 C.ar      1 <0>        -0.0915
     32 C23        -3.0441  -10.5533   -2.4099 C.ar      1 <0>        -0.1052
     33 C24        -3.0620   -9.3915   -3.1588 C.ar      1 <0>        -0.1044
     34 C25        -4.2494   -8.7097   -3.3486 C.ar      1 <0>        -0.1121
     35 C26        -5.4197   -9.1918   -2.7928 C.ar      1 <0>        -0.1085
     36 O6         -6.6565  -12.3026   -1.4375 O.3       1 <0>        -0.5460
     37 H3          1.0039    1.9031    0.0027 H         1 <0>         0.0548
     38 H4         -0.5459    1.8868   -0.8726 H         1 <0>         0.0536
     39 H5         -0.5289    1.8773    0.9072 H         1 <0>         0.0534
     40 H6          0.5123   -0.3556   -0.8948 H         1 <0>         0.0607
     41 H7          0.5293   -0.3651    0.8851 H         1 <0>         0.0604
     42 H8         -1.9435   -0.1821    0.9097 H         1 <0>         0.0605
     43 H9         -1.9605   -0.1726   -0.8702 H         1 <0>         0.0608
     44 H10        -0.9024   -2.4150   -0.8923 H         1 <0>         0.0612
     45 H11        -0.8854   -2.4246    0.8875 H         1 <0>         0.0609
     46 H12        -3.3581   -2.2415    0.9121 H         1 <0>         0.0604
     47 H13        -3.3751   -2.2320   -0.8677 H         1 <0>         0.0610
     48 H14        -2.3170   -4.4744   -0.8899 H         1 <0>         0.0625
     49 H15        -2.3000   -4.4840    0.8900 H         1 <0>         0.0617
     50 H16        -4.7728   -4.3010    0.9146 H         1 <0>         0.0615
     51 H17        -4.7898   -4.2914   -0.8653 H         1 <0>         0.0626
     52 H18        -3.7316   -6.5338   -0.8874 H         1 <0>         0.0721
     53 H19        -3.7146   -6.5434    0.8924 H         1 <0>         0.0689
     54 H20        -6.1874   -6.3604    0.9170 H         1 <0>         0.0936
     55 H21        -6.2044   -6.3508   -0.8628 H         1 <0>         0.0964
     56 H22        -7.6612   -8.4349    0.0299 H         1 <0>         0.4018
     57 H23        -8.9344  -10.6239    0.0018 H         1 <0>         0.1426
     58 H24        -8.0371  -11.9904    0.7058 H         1 <0>         0.1541
     59 H25        -7.4810  -10.5878    2.5524 H         1 <0>         0.4286
     60 H26        -9.4873  -11.9279    2.5625 H         1 <0>         0.1629
     61 H27       -10.5944  -10.3934    0.6792 H         1 <0>         0.1481
     62 H28       -13.0474  -10.1451    3.9589 H         1 <0>         0.0792
     63 H29       -11.0976  -10.4227    5.5813 H         1 <0>         0.0945
     64 H30        -8.8828  -10.8380    4.6295 H         1 <0>         0.0952
     65 H31        -9.4671   -8.5389    4.9263 H         1 <0>         0.4106
     66 H32       -12.1999  -12.3093    4.5964 H         1 <0>         0.4003
     67 H33       -12.5192   -7.8359    3.6970 H         1 <0>         0.3897
     68 H34       -13.7641  -10.0809    1.5029 H         1 <0>         0.0721
     69 H35       -13.0999   -8.4295    1.4916 H         1 <0>         0.0704
     70 H36       -13.0912   -9.4072   -0.6878 H         1 <0>         0.3979
     71 H37        -4.1997  -11.9407   -1.2654 H         1 <0>         0.1127
     72 H38        -2.1164  -11.0859   -2.2615 H         1 <0>         0.1224
     73 H39        -2.1481   -9.0163   -3.5952 H         1 <0>         0.1227
     74 H40        -4.2633   -7.8018   -3.9334 H         1 <0>         0.1213
     75 H41        -6.3481   -8.6612   -2.9442 H         1 <0>         0.1136
     76 H42        -5.9228  -12.6888   -0.9399 H         1 <0>         0.3814
     77 H43        -8.3116   -9.3228    1.9007 H         1 <0>         0.4312
@<TRIPOS>BOND
     1    1    2 1
     2    1   37 1
     3    1   38 1
     4    1   39 1
     5    2    3 1
     6    2   40 1
     7    2   41 1
     8    3    4 1
     9    3   42 1
    10    3   43 1
    11    4    5 1
    12    4   44 1
    13    4   45 1
    14    5    6 1
    15    5   46 1
    16    5   47 1
    17    6    7 1
    18    6   48 1
    19    6   49 1
    20    7    8 1
    21    7   50 1
    22    7   51 1
    23    8    9 1
    24    8   52 1
    25    8   53 1
    26    9   10 1
    27    9   54 1
    28    9   55 1
    29   10   11 2
    30   10   12 am
    31   12   13 1
    32   12   56 1
    33   13   14 1
    34   13   15 1
    35   13   28 1
    36   15   16 1
    37   15   57 1
    38   15   58 1
    39   16   17 1
    40   16   59 1
    41   16   77 1
    42   17   22 1
    43   17   18 1
    44   17   60 1
    45   18   19 2
    46   18   61 1
    47   19   20 1
    48   19   26 1
    49   20   21 1
    50   20   25 1
    51   20   62 1
    52   21   22 1
    53   21   24 1
    54   21   63 1
    55   22   23 1
    56   22   64 1
    57   23   65 1
    58   24   66 1
    59   25   67 1
    60   26   27 1
    61   26   68 1
    62   26   69 1
    63   27   70 1
    64   28   29 1
    65   28   30 1
    66   28   36 1
    67   30   35 ar
    68   30   31 ar
    69   31   32 ar
    70   31   71 1
    71   32   33 ar
    72   32   72 1
    73   33   34 ar
    74   33   73 1
    75   34   35 ar
    76   34   74 1
    77   35   75 1
    78   36   76 1
@<TRIPOS>MOLECULE
CHEMBL57497__9
   76    77     0     0     0
SMALL
USER_CHARGES

@<TRIPOS>ATOM
      1 C1         -0.0187    1.5258    0.0104 C.3       1 <0>        -0.1541
      2 C2          0.0021   -0.0041    0.0020 C.3       1 <0>        -0.1263
      3 C3          0.7182   -0.4975   -1.2568 C.3       1 <0>        -0.1209
      4 C4          0.7390   -2.0273   -1.2652 C.3       1 <0>        -0.1214
      5 C5          1.4551   -2.5207   -2.5240 C.3       1 <0>        -0.1198
      6 C6          1.4758   -4.0506   -2.5324 C.3       1 <0>        -0.1193
      7 C7          2.1920   -4.5440   -3.7912 C.3       1 <0>        -0.1196
      8 C8          2.2127   -6.0738   -3.7996 C.3       1 <0>        -0.1001
      9 C9          2.9289   -6.5673   -5.0584 C.3       1 <0>        -0.1384
     10 C10         2.9493   -8.0741   -5.0667 C.2       1 <0>         0.5134
     11 O1          2.4411   -8.6925   -4.1555 O.2       1 <0>        -0.5224
     12 N1          3.5323   -8.7345   -6.0867 N.am      1 <0>        -0.7105
     13 C11         3.5522  -10.1994   -6.0948 C.3       1 <0>         0.1277
     14 H1          2.6300  -10.5777   -5.6537 H         1 <0>         0.0937
     15 C12         3.6711  -10.6999   -7.5357 C.3       1 <0>         0.0405
     16 N2          2.5886  -10.1243   -8.3449 N.3       1 <0>        -0.6615
     17 C13         2.6710  -10.5839   -9.7377 C.3       1 <0>         0.1290
     18 C14         3.6334   -9.7142  -10.4924 C.2       1 <0>        -0.0651
     19 C15         3.4234   -9.2693  -11.6897 C.2       1 <0>        -0.1822
     20 C16         2.1840   -9.5532  -12.4868 C.3       1 <0>         0.1303
     21 C17         1.4330  -10.7440  -11.8873 C.3       1 <0>         0.0807
     22 C18         1.2830  -10.5131  -10.3782 C.3       1 <0>         0.1157
     23 O2          0.7108   -9.2249  -10.1434 O.3       1 <0>        -0.5195
     24 O3          2.1731  -11.9444  -12.1183 O.3       1 <0>        -0.5489
     25 O4          1.3369   -8.4024  -12.4712 O.3       1 <0>        -0.5442
     26 C19         4.4902   -8.4136  -12.3227 C.3       1 <0>         0.1146
     27 O5          5.5810   -8.2611  -11.4123 O.3       1 <0>        -0.5680
     28 C20         4.7485  -10.6977   -5.2814 C.3       1 <0>         0.1378
     29 H2          5.6706  -10.3194   -5.7225 H         1 <0>         0.0642
     30 C21         4.6313  -10.2047   -3.8622 C.ar      1 <0>        -0.0646
     31 C22         3.8849  -10.9172   -2.9424 C.ar      1 <0>        -0.0723
     32 C23         3.7775  -10.4650   -1.6405 C.ar      1 <0>        -0.1159
     33 C24         4.4169   -9.3005   -1.2583 C.ar      1 <0>        -0.1138
     34 C25         5.1641   -8.5885   -2.1779 C.ar      1 <0>        -0.1186
     35 C26         5.2750   -9.0430   -3.4787 C.ar      1 <0>        -0.1104
     36 O6          4.7678  -12.1265   -5.2893 O.3       1 <0>        -0.5548
     37 H3          1.0039    1.9031    0.0027 H         1 <0>         0.0531
     38 H4         -0.5459    1.8868   -0.8726 H         1 <0>         0.0532
     39 H5         -0.5289    1.8773    0.9072 H         1 <0>         0.0532
     40 H6          0.5293   -0.3651    0.8851 H         1 <0>         0.0602
     41 H7         -1.0205   -0.3814    0.0098 H         1 <0>         0.0603
     42 H8          0.1910   -0.1364   -2.1398 H         1 <0>         0.0603
     43 H9          1.7408   -0.1202   -1.2645 H         1 <0>         0.0602
     44 H10         1.2661   -2.3884   -0.3821 H         1 <0>         0.0606
     45 H11        -0.2836   -2.4046   -1.2575 H         1 <0>         0.0606
     46 H12         0.9279   -2.1597   -3.4071 H         1 <0>         0.0602
     47 H13         2.4777   -2.1435   -2.5317 H         1 <0>         0.0600
     48 H14         2.0030   -4.4117   -1.6494 H         1 <0>         0.0612
     49 H15         0.4533   -4.4279   -2.5247 H         1 <0>         0.0611
     50 H16         1.6648   -4.1829   -4.6743 H         1 <0>         0.0605
     51 H17         3.2146   -4.1667   -3.7990 H         1 <0>         0.0601
     52 H18         2.7399   -6.4349   -2.9166 H         1 <0>         0.0689
     53 H19         1.1901   -6.4511   -3.7919 H         1 <0>         0.0668
     54 H20         2.4017   -6.2062   -5.9415 H         1 <0>         0.0899
     55 H21         3.9515   -6.1900   -5.0662 H         1 <0>         0.0867
     56 H22         3.9388   -8.2400   -6.8155 H         1 <0>         0.4038
     57 H23         4.6335  -10.3962   -7.9476 H         1 <0>         0.0808
     58 H24         3.5966  -11.7872   -7.5499 H         1 <0>         0.0464
     59 H25         1.6865  -10.3378   -7.9464 H         1 <0>         0.3493
     60 H26         3.0260  -11.6142   -9.7578 H         1 <0>         0.0746
     61 H27         4.5586   -9.4423  -10.0061 H         1 <0>         0.1224
     62 H28         2.4608   -9.7816  -13.5160 H         1 <0>         0.0569
     63 H29         0.4472  -10.8238  -12.3455 H         1 <0>         0.0724
     64 H30         0.6427  -11.2851   -9.9513 H         1 <0>         0.0619
     65 H31        -0.1712   -9.1112  -10.5232 H         1 <0>         0.3766
     66 H32         2.3191  -12.1426  -13.0535 H         1 <0>         0.3840
     67 H33         1.7436   -7.6095  -12.8468 H         1 <0>         0.3791
     68 H34         4.8437   -8.8906  -13.2368 H         1 <0>         0.0514
     69 H35         4.0761   -7.4338  -12.5609 H         1 <0>         0.0518
     70 H36         6.3061   -7.7204  -11.7543 H         1 <0>         0.3829
     71 H37         3.3853  -11.8270   -3.2410 H         1 <0>         0.1177
     72 H38         3.1937  -11.0213   -0.9221 H         1 <0>         0.1160
     73 H39         4.3323   -8.9468   -0.2414 H         1 <0>         0.1157
     74 H40         5.6633   -7.6785   -1.8794 H         1 <0>         0.1160
     75 H41         5.8618   -8.4887   -4.1962 H         1 <0>         0.1110
     76 H42         4.8418  -12.5140   -6.1722 H         1 <0>         0.3771
@<TRIPOS>BOND
     1    1    2 1
     2    1   37 1
     3    1   38 1
     4    1   39 1
     5    2    3 1
     6    2   40 1
     7    2   41 1
     8    3    4 1
     9    3   42 1
    10    3   43 1
    11    4    5 1
    12    4   44 1
    13    4   45 1
    14    5    6 1
    15    5   46 1
    16    5   47 1
    17    6    7 1
    18    6   48 1
    19    6   49 1
    20    7    8 1
    21    7   50 1
    22    7   51 1
    23    8    9 1
    24    8   52 1
    25    8   53 1
    26    9   10 1
    27    9   54 1
    28    9   55 1
    29   10   11 2
    30   10   12 am
    31   12   13 1
    32   12   56 1
    33   13   14 1
    34   13   15 1
    35   13   28 1
    36   15   16 1
    37   15   57 1
    38   15   58 1
    39   16   17 1
    40   16   59 1
    41   17   22 1
    42   17   18 1
    43   17   60 1
    44   18   19 2
    45   18   61 1
    46   19   20 1
    47   19   26 1
    48   20   21 1
    49   20   25 1
    50   20   62 1
    51   21   22 1
    52   21   24 1
    53   21   63 1
    54   22   23 1
    55   22   64 1
    56   23   65 1
    57   24   66 1
    58   25   67 1
    59   26   27 1
    60   26   68 1
    61   26   69 1
    62   27   70 1
    63   28   29 1
    64   28   30 1
    65   28   36 1
    66   30   35 ar
    67   30   31 ar
    68   31   32 ar
    69   31   71 1
    70   32   33 ar
    71   32   72 1
    72   33   34 ar
    73   33   73 1
    74   34   35 ar
    75   34   74 1
    76   35   75 1
    77   36   76 1
@<TRIPOS>MOLECULE
CHEMBL57497__10
   77    78     0     0     0
SMALL
USER_CHARGES

@<TRIPOS>ATOM
      1 C1         -0.0187    1.5258    0.0104 C.3       1 <0>        -0.1550
      2 C2          0.0021   -0.0041    0.0020 C.3       1 <0>        -0.1264
      3 C3         -1.4333   -0.5336    0.0129 C.3       1 <0>        -0.1210
      4 C4         -1.4126   -2.0635    0.0045 C.3       1 <0>        -0.1218
      5 C5         -2.8479   -2.5931    0.0153 C.3       1 <0>        -0.1200
      6 C6         -2.8272   -4.1229    0.0069 C.3       1 <0>        -0.1201
      7 C7         -4.2626   -4.6525    0.0178 C.3       1 <0>        -0.1198
      8 C8         -4.2418   -6.1823    0.0094 C.3       1 <0>        -0.1040
      9 C9         -5.6772   -6.7119    0.0202 C.3       1 <0>        -0.1393
     10 C10        -5.6568   -8.2187    0.0119 C.2       1 <0>         0.5144
     11 O1         -4.5984   -8.8108   -0.0014 O.2       1 <0>        -0.4903
     12 N1         -6.8147   -8.9084    0.0193 N.am      1 <0>        -0.7514
     13 C11        -6.7948  -10.3733    0.0112 C.3       1 <0>         0.0956
     14 H1         -5.9426  -10.7283    0.5907 H         1 <0>         0.1166
     15 C12        -8.0892  -10.9043    0.6304 C.3       1 <0>        -0.0173
     16 N2         -8.2633  -10.3282    1.9705 N.4       1 <0>        -0.5020
     17 C13        -9.5062  -10.8381    2.5650 C.3       1 <0>         0.0818
     18 C14       -10.6767  -10.3618    1.7556 C.2       1 <0>        -0.1789
     19 C15       -11.7786   -9.9151    2.2673 C.2       1 <0>        -0.0921
     20 C16       -12.0355   -9.8011    3.7414 C.3       1 <0>         0.1005
     21 C17       -11.0321  -10.6557    4.5189 C.3       1 <0>         0.0904
     22 C18        -9.6225  -10.3360    4.0058 C.3       1 <0>         0.0998
     23 O2         -8.6528  -10.9941    4.8235 O.3       1 <0>        -0.5587
     24 O3        -11.3169  -12.0403    4.3100 O.3       1 <0>        -0.5450
     25 O4        -11.9044   -8.4354    4.1409 O.3       1 <0>        -0.5485
     26 C19       -12.8711   -9.4820    1.3240 C.3       1 <0>         0.0971
     27 O5        -12.4365   -9.6660   -0.0248 O.3       1 <0>        -0.5742
     28 C20        -6.6759  -10.8738   -1.4297 C.3       1 <0>         0.1481
     29 H2         -7.5282  -10.5188   -2.0091 H         1 <0>         0.1166
     30 C21        -5.4009  -10.3508   -2.0396 C.ar      1 <0>        -0.1158
     31 C22        -4.2136  -11.0330   -1.8505 C.ar      1 <0>        -0.0913
     32 C23        -3.0441  -10.5533   -2.4099 C.ar      1 <0>        -0.1050
     33 C24        -3.0620   -9.3915   -3.1588 C.ar      1 <0>        -0.1043
     34 C25        -4.2494   -8.7097   -3.3486 C.ar      1 <0>        -0.1123
     35 C26        -5.4197   -9.1918   -2.7928 C.ar      1 <0>        -0.1086
     36 O6         -6.6565  -12.3026   -1.4375 O.3       1 <0>        -0.5459
     37 H3          1.0039    1.9031    0.0027 H         1 <0>         0.0549
     38 H4         -0.5459    1.8868   -0.8726 H         1 <0>         0.0536
     39 H5         -0.5289    1.8773    0.9072 H         1 <0>         0.0534
     40 H6          0.5123   -0.3556   -0.8948 H         1 <0>         0.0607
     41 H7          0.5293   -0.3651    0.8851 H         1 <0>         0.0605
     42 H8         -1.9435   -0.1821    0.9097 H         1 <0>         0.0604
     43 H9         -1.9605   -0.1726   -0.8702 H         1 <0>         0.0607
     44 H10        -0.9024   -2.4150   -0.8923 H         1 <0>         0.0613
     45 H11        -0.8854   -2.4246    0.8875 H         1 <0>         0.0609
     46 H12        -3.3581   -2.2415    0.9121 H         1 <0>         0.0603
     47 H13        -3.3751   -2.2320   -0.8677 H         1 <0>         0.0610
     48 H14        -2.3170   -4.4744   -0.8899 H         1 <0>         0.0626
     49 H15        -2.3000   -4.4840    0.8900 H         1 <0>         0.0619
     50 H16        -4.7728   -4.3010    0.9146 H         1 <0>         0.0613
     51 H17        -4.7898   -4.2914   -0.8653 H         1 <0>         0.0627
     52 H18        -3.7316   -6.5338   -0.8874 H         1 <0>         0.0726
     53 H19        -3.7146   -6.5434    0.8924 H         1 <0>         0.0692
     54 H20        -6.1874   -6.3604    0.9170 H         1 <0>         0.0927
     55 H21        -6.2044   -6.3508   -0.8628 H         1 <0>         0.0969
     56 H22        -7.6612   -8.4349    0.0299 H         1 <0>         0.4007
     57 H23        -8.9344  -10.6239    0.0018 H         1 <0>         0.1430
     58 H24        -8.0371  -11.9904    0.7058 H         1 <0>         0.1555
     59 H25        -7.4810  -10.5878    2.5524 H         1 <0>         0.4366
     60 H26        -9.4873  -11.9279    2.5625 H         1 <0>         0.1640
     61 H27       -10.5944  -10.3934    0.6792 H         1 <0>         0.1552
     62 H28       -13.0471  -10.1437    3.9593 H         1 <0>         0.0877
     63 H29       -11.0971  -10.4213    5.5814 H         1 <0>         0.0962
     64 H30        -9.4585   -9.2587    4.0328 H         1 <0>         0.1013
     65 H31        -8.6711  -10.7223    5.7514 H         1 <0>         0.4080
     66 H32       -12.2005  -12.3079    4.5977 H         1 <0>         0.3961
     67 H33       -12.5179   -7.8348    3.6960 H         1 <0>         0.3943
     68 H34       -13.7641  -10.0809    1.5029 H         1 <0>         0.0750
     69 H35       -13.0999   -8.4295    1.4916 H         1 <0>         0.0722
     70 H36       -13.0912   -9.4072   -0.6878 H         1 <0>         0.3994
     71 H37        -4.1997  -11.9407   -1.2654 H         1 <0>         0.1130
     72 H38        -2.1164  -11.0859   -2.2615 H         1 <0>         0.1226
     73 H39        -2.1481   -9.0163   -3.5952 H         1 <0>         0.1227
     74 H40        -4.2633   -7.8018   -3.9334 H         1 <0>         0.1212
     75 H41        -6.3481   -8.6612   -2.9442 H         1 <0>         0.1135
     76 H42        -5.9228  -12.6888   -0.9399 H         1 <0>         0.3820
     77 H43        -8.3116   -9.3228    1.9007 H         1 <0>         0.4205
@<TRIPOS>BOND
     1    1    2 1
     2    1   37 1
     3    1   38 1
     4    1   39 1
     5    2    3 1
     6    2   40 1
     7    2   41 1
     8    3    4 1
     9    3   42 1
    10    3   43 1
    11    4    5 1
    12    4   44 1
    13    4   45 1
    14    5    6 1
    15    5   46 1
    16    5   47 1
    17    6    7 1
    18    6   48 1
    19    6   49 1
    20    7    8 1
    21    7   50 1
    22    7   51 1
    23    8    9 1
    24    8   52 1
    25    8   53 1
    26    9   10 1
    27    9   54 1
    28    9   55 1
    29   10   11 2
    30   10   12 am
    31   12   13 1
    32   12   56 1
    33   13   14 1
    34   13   15 1
    35   13   28 1
    36   15   16 1
    37   15   57 1
    38   15   58 1
    39   16   17 1
    40   16   59 1
    41   16   77 1
    42   17   22 1
    43   17   18 1
    44   17   60 1
    45   18   19 2
    46   18   61 1
    47   19   20 1
    48   19   26 1
    49   20   21 1
    50   20   25 1
    51   20   62 1
    52   21   22 1
    53   21   24 1
    54   21   63 1
    55   22   23 1
    56   22   64 1
    57   23   65 1
    58   24   66 1
    59   25   67 1
    60   26   27 1
    61   26   68 1
    62   26   69 1
    63   27   70 1
    64   28   29 1
    65   28   30 1
    66   28   36 1
    67   30   35 ar
    68   30   31 ar
    69   31   32 ar
    70   31   71 1
    71   32   33 ar
    72   32   72 1
    73   33   34 ar
    74   33   73 1
    75   34   35 ar
    76   34   74 1
    77   35   75 1
    78   36   76 1
@<TRIPOS>MOLECULE
CHEMBL57497__11
   76    77     0     0     0
SMALL
USER_CHARGES

@<TRIPOS>ATOM
      1 C1         -0.0187    1.5258    0.0104 C.3       1 <0>        -0.1541
      2 C2          0.0021   -0.0041    0.0020 C.3       1 <0>        -0.1263
      3 C3          0.7182   -0.4975   -1.2568 C.3       1 <0>        -0.1209
      4 C4          0.7390   -2.0273   -1.2652 C.3       1 <0>        -0.1215
      5 C5          1.4551   -2.5207   -2.5240 C.3       1 <0>        -0.1197
      6 C6          1.4758   -4.0506   -2.5324 C.3       1 <0>        -0.1195
      7 C7          2.1920   -4.5440   -3.7912 C.3       1 <0>        -0.1194
      8 C8          2.2127   -6.0738   -3.7996 C.3       1 <0>        -0.1007
      9 C9          2.9289   -6.5673   -5.0584 C.3       1 <0>        -0.1383
     10 C10         2.9493   -8.0741   -5.0667 C.2       1 <0>         0.5120
     11 O1          2.4411   -8.6925   -4.1555 O.2       1 <0>        -0.5205
     12 N1          3.5323   -8.7345   -6.0867 N.am      1 <0>        -0.7120
     13 C11         3.5522  -10.1994   -6.0948 C.3       1 <0>         0.1267
     14 H1          2.6300  -10.5777   -5.6537 H         1 <0>         0.0949
     15 C12         3.6711  -10.6999   -7.5357 C.3       1 <0>         0.0434
     16 N2          2.5886  -10.1243   -8.3449 N.3       1 <0>        -0.6721
     17 C13         2.6710  -10.5839   -9.7377 C.3       1 <0>         0.1273
     18 C14         3.6334   -9.7142  -10.4924 C.2       1 <0>        -0.0673
     19 C15         3.4234   -9.2693  -11.6897 C.2       1 <0>        -0.1891
     20 C16         2.1836   -9.5524  -12.4864 C.3       1 <0>         0.1214
     21 C17         1.4324  -10.7433  -11.8872 C.3       1 <0>         0.0853
     22 C18         1.2830  -10.5131  -10.3782 C.3       1 <0>         0.1151
     23 O2          0.4436  -11.5252   -9.8186 O.3       1 <0>        -0.5596
     24 O3          2.1721  -11.9438  -12.1192 O.3       1 <0>        -0.5422
     25 O4          1.3369   -8.4013  -12.4699 O.3       1 <0>        -0.5543
     26 C19         4.4902   -8.4136  -12.3227 C.3       1 <0>         0.1144
     27 O5          5.5810   -8.2611  -11.4123 O.3       1 <0>        -0.5681
     28 C20         4.7485  -10.6977   -5.2814 C.3       1 <0>         0.1382
     29 H2          5.6706  -10.3194   -5.7225 H         1 <0>         0.0642
     30 C21         4.6313  -10.2047   -3.8622 C.ar      1 <0>        -0.0648
     31 C22         3.8849  -10.9172   -2.9424 C.ar      1 <0>        -0.0721
     32 C23         3.7775  -10.4650   -1.6405 C.ar      1 <0>        -0.1157
     33 C24         4.4169   -9.3005   -1.2583 C.ar      1 <0>        -0.1138
     34 C25         5.1641   -8.5885   -2.1779 C.ar      1 <0>        -0.1189
     35 C26         5.2750   -9.0430   -3.4787 C.ar      1 <0>        -0.1107
     36 O6          4.7678  -12.1265   -5.2893 O.3       1 <0>        -0.5545
     37 H3          1.0039    1.9031    0.0027 H         1 <0>         0.0531
     38 H4         -0.5459    1.8868   -0.8726 H         1 <0>         0.0531
     39 H5         -0.5289    1.8773    0.9072 H         1 <0>         0.0533
     40 H6          0.5293   -0.3651    0.8851 H         1 <0>         0.0603
     41 H7         -1.0205   -0.3814    0.0098 H         1 <0>         0.0603
     42 H8          0.1910   -0.1364   -2.1398 H         1 <0>         0.0602
     43 H9          1.7408   -0.1202   -1.2645 H         1 <0>         0.0603
     44 H10         1.2661   -2.3884   -0.3821 H         1 <0>         0.0607
     45 H11        -0.2836   -2.4046   -1.2575 H         1 <0>         0.0606
     46 H12         0.9279   -2.1597   -3.4071 H         1 <0>         0.0600
     47 H13         2.4777   -2.1435   -2.5317 H         1 <0>         0.0600
     48 H14         2.0030   -4.4117   -1.6494 H         1 <0>         0.0614
     49 H15         0.4533   -4.4279   -2.5247 H         1 <0>         0.0612
     50 H16         1.6648   -4.1829   -4.6743 H         1 <0>         0.0602
     51 H17         3.2146   -4.1667   -3.7990 H         1 <0>         0.0602
     52 H18         2.7399   -6.4349   -2.9166 H         1 <0>         0.0694
     53 H19         1.1901   -6.4511   -3.7919 H         1 <0>         0.0670
     54 H20         2.4017   -6.2062   -5.9415 H         1 <0>         0.0890
     55 H21         3.9515   -6.1900   -5.0662 H         1 <0>         0.0873
     56 H22         3.9388   -8.2400   -6.8155 H         1 <0>         0.4030
     57 H23         4.6335  -10.3962   -7.9476 H         1 <0>         0.0804
     58 H24         3.5966  -11.7872   -7.5499 H         1 <0>         0.0498
     59 H25         1.6865  -10.3378   -7.9464 H         1 <0>         0.3540
     60 H26         3.0260  -11.6142   -9.7578 H         1 <0>         0.0757
     61 H27         4.5586   -9.4423  -10.0061 H         1 <0>         0.1297
     62 H28         2.4599   -9.7803  -13.5159 H         1 <0>         0.0656
     63 H29         0.4464  -10.8226  -12.3451 H         1 <0>         0.0744
     64 H30         0.8465   -9.5305  -10.1991 H         1 <0>         0.0894
     65 H31        -0.4530  -11.5371  -10.1806 H         1 <0>         0.3837
     66 H32         2.3177  -12.1415  -13.0545 H         1 <0>         0.3794
     67 H33         1.7437   -7.6084  -12.8452 H         1 <0>         0.3838
     68 H34         4.8437   -8.8906  -13.2368 H         1 <0>         0.0542
     69 H35         4.0761   -7.4338  -12.5609 H         1 <0>         0.0534
     70 H36         6.3061   -7.7204  -11.7543 H         1 <0>         0.3844
     71 H37         3.3853  -11.8270   -3.2410 H         1 <0>         0.1181
     72 H38         3.1937  -11.0213   -0.9221 H         1 <0>         0.1162
     73 H39         4.3323   -8.9468   -0.2414 H         1 <0>         0.1157
     74 H40         5.6633   -7.6785   -1.8794 H         1 <0>         0.1159
     75 H41         5.8618   -8.4887   -4.1962 H         1 <0>         0.1109
     76 H42         4.8418  -12.5140   -6.1722 H         1 <0>         0.3777
@<TRIPOS>BOND
     1    1    2 1
     2    1   37 1
     3    1   38 1
     4    1   39 1
     5    2    3 1
     6    2   40 1
     7    2   41 1
     8    3    4 1
     9    3   42 1
    10    3   43 1
    11    4    5 1
    12    4   44 1
    13    4   45 1
    14    5    6 1
    15    5   46 1
    16    5   47 1
    17    6    7 1
    18    6   48 1
    19    6   49 1
    20    7    8 1
    21    7   50 1
    22    7   51 1
    23    8    9 1
    24    8   52 1
    25    8   53 1
    26    9   10 1
    27    9   54 1
    28    9   55 1
    29   10   11 2
    30   10   12 am
    31   12   13 1
    32   12   56 1
    33   13   14 1
    34   13   15 1
    35   13   28 1
    36   15   16 1
    37   15   57 1
    38   15   58 1
    39   16   17 1
    40   16   59 1
    41   17   22 1
    42   17   18 1
    43   17   60 1
    44   18   19 2
    45   18   61 1
    46   19   20 1
    47   19   26 1
    48   20   21 1
    49   20   25 1
    50   20   62 1
    51   21   22 1
    52   21   24 1
    53   21   63 1
    54   22   23 1
    55   22   64 1
    56   23   65 1
    57   24   66 1
    58   25   67 1
    59   26   27 1
    60   26   68 1
    61   26   69 1
    62   27   70 1
    63   28   29 1
    64   28   30 1
    65   28   36 1
    66   30   35 ar
    67   30   31 ar
    68   31   32 ar
    69   31   71 1
    70   32   33 ar
    71   32   72 1
    72   33   34 ar
    73   33   73 1
    74   34   35 ar
    75   34   74 1
    76   35   75 1
    77   36   76 1
@<TRIPOS>MOLECULE
CHEMBL57497__12
   77    78     0     0     0
SMALL
USER_CHARGES

@<TRIPOS>ATOM
      1 C1         -0.0187    1.5258    0.0104 C.3       1 <0>        -0.1550
      2 C2          0.0021   -0.0041    0.0020 C.3       1 <0>        -0.1264
      3 C3         -1.4333   -0.5336    0.0129 C.3       1 <0>        -0.1211
      4 C4         -1.4126   -2.0635    0.0045 C.3       1 <0>        -0.1217
      5 C5         -2.8479   -2.5931    0.0153 C.3       1 <0>        -0.1201
      6 C6         -2.8272   -4.1229    0.0069 C.3       1 <0>        -0.1199
      7 C7         -4.2626   -4.6525    0.0178 C.3       1 <0>        -0.1200
      8 C8         -4.2418   -6.1823    0.0094 C.3       1 <0>        -0.1034
      9 C9         -5.6772   -6.7119    0.0202 C.3       1 <0>        -0.1397
     10 C10        -5.6568   -8.2187    0.0119 C.2       1 <0>         0.5159
     11 O1         -4.5984   -8.8108   -0.0014 O.2       1 <0>        -0.4922
     12 N1         -6.8147   -8.9084    0.0193 N.am      1 <0>        -0.7506
     13 C11        -6.7948  -10.3733    0.0112 C.3       1 <0>         0.0963
     14 H1         -5.9426  -10.7283    0.5907 H         1 <0>         0.1159
     15 C12        -8.0892  -10.9043    0.6304 C.3       1 <0>        -0.0194
     16 N2         -8.2633  -10.3282    1.9705 N.4       1 <0>        -0.4963
     17 C13        -9.5062  -10.8381    2.5650 C.3       1 <0>         0.0811
     18 C14       -10.6767  -10.3618    1.7556 C.2       1 <0>        -0.1915
     19 C15       -11.7786   -9.9151    2.2673 C.2       1 <0>        -0.0807
     20 C16       -12.0355   -9.8011    3.7414 C.3       1 <0>         0.1071
     21 C17       -11.0321  -10.6557    4.5189 C.3       1 <0>         0.0889
     22 C18        -9.6225  -10.3360    4.0058 C.3       1 <0>         0.0951
     23 O2         -9.4076   -8.9237    4.0412 O.3       1 <0>        -0.5532
     24 O3        -11.1173  -10.3484    5.9119 O.3       1 <0>        -0.5449
     25 O4        -11.9044   -8.4354    4.1409 O.3       1 <0>        -0.5284
     26 C19       -12.8711   -9.4820    1.3240 C.3       1 <0>         0.0963
     27 O5        -12.4365   -9.6660   -0.0248 O.3       1 <0>        -0.5746
     28 C20        -6.6759  -10.8738   -1.4297 C.3       1 <0>         0.1480
     29 H2         -7.5282  -10.5188   -2.0091 H         1 <0>         0.1166
     30 C21        -5.4009  -10.3508   -2.0396 C.ar      1 <0>        -0.1159
     31 C22        -4.2136  -11.0330   -1.8505 C.ar      1 <0>        -0.0915
     32 C23        -3.0441  -10.5533   -2.4099 C.ar      1 <0>        -0.1052
     33 C24        -3.0620   -9.3915   -3.1588 C.ar      1 <0>        -0.1041
     34 C25        -4.2494   -8.7097   -3.3486 C.ar      1 <0>        -0.1119
     35 C26        -5.4197   -9.1918   -2.7928 C.ar      1 <0>        -0.1084
     36 O6         -6.6565  -12.3026   -1.4375 O.3       1 <0>        -0.5463
     37 H3          1.0039    1.9031    0.0027 H         1 <0>         0.0548
     38 H4         -0.5459    1.8868   -0.8726 H         1 <0>         0.0536
     39 H5         -0.5289    1.8773    0.9072 H         1 <0>         0.0535
     40 H6          0.5123   -0.3556   -0.8948 H         1 <0>         0.0606
     41 H7          0.5293   -0.3651    0.8851 H         1 <0>         0.0604
     42 H8         -1.9435   -0.1821    0.9097 H         1 <0>         0.0605
     43 H9         -1.9605   -0.1726   -0.8702 H         1 <0>         0.0607
     44 H10        -0.9024   -2.4150   -0.8923 H         1 <0>         0.0611
     45 H11        -0.8854   -2.4246    0.8875 H         1 <0>         0.0609
     46 H12        -3.3581   -2.2415    0.9121 H         1 <0>         0.0605
     47 H13        -3.3751   -2.2320   -0.8677 H         1 <0>         0.0609
     48 H14        -2.3170   -4.4744   -0.8899 H         1 <0>         0.0624
     49 H15        -2.3000   -4.4840    0.8900 H         1 <0>         0.0618
     50 H16        -4.7728   -4.3010    0.9146 H         1 <0>         0.0617
     51 H17        -4.7898   -4.2914   -0.8653 H         1 <0>         0.0626
     52 H18        -3.7316   -6.5338   -0.8874 H         1 <0>         0.0721
     53 H19        -3.7146   -6.5434    0.8924 H         1 <0>         0.0690
     54 H20        -6.1874   -6.3604    0.9170 H         1 <0>         0.0939
     55 H21        -6.2044   -6.3508   -0.8628 H         1 <0>         0.0965
     56 H22        -7.6612   -8.4349    0.0299 H         1 <0>         0.4019
     57 H23        -8.9344  -10.6239    0.0018 H         1 <0>         0.1435
     58 H24        -8.0371  -11.9904    0.7058 H         1 <0>         0.1545
     59 H25        -7.4810  -10.5878    2.5524 H         1 <0>         0.4300
     60 H26        -9.4873  -11.9279    2.5625 H         1 <0>         0.1586
     61 H27       -10.5944  -10.3934    0.6792 H         1 <0>         0.1515
     62 H28       -13.0471  -10.1437    3.9593 H         1 <0>         0.0791
     63 H29       -11.2493  -11.7118    4.3596 H         1 <0>         0.0888
     64 H30        -8.8828  -10.8380    4.6295 H         1 <0>         0.0945
     65 H31        -9.4671   -8.5389    4.9263 H         1 <0>         0.4151
     66 H32       -11.9886  -10.5119    6.2981 H         1 <0>         0.3984
     67 H33       -12.5179   -7.8348    3.6960 H         1 <0>         0.3838
     68 H34       -13.7641  -10.0809    1.5029 H         1 <0>         0.0741
     69 H35       -13.0999   -8.4295    1.4916 H         1 <0>         0.0729
     70 H36       -13.0912   -9.4072   -0.6878 H         1 <0>         0.3989
     71 H37        -4.1997  -11.9407   -1.2654 H         1 <0>         0.1127
     72 H38        -2.1164  -11.0859   -2.2615 H         1 <0>         0.1225
     73 H39        -2.1481   -9.0163   -3.5952 H         1 <0>         0.1228
     74 H40        -4.2633   -7.8018   -3.9334 H         1 <0>         0.1214
     75 H41        -6.3481   -8.6612   -2.9442 H         1 <0>         0.1136
     76 H42        -5.9228  -12.6888   -0.9399 H         1 <0>         0.3815
     77 H43        -8.3116   -9.3228    1.9007 H         1 <0>         0.4337
@<TRIPOS>BOND
     1    1    2 1
     2    1   37 1
     3    1   38 1
     4    1   39 1
     5    2    3 1
     6    2   40 1
     7    2   41 1
     8    3    4 1
     9    3   42 1
    10    3   43 1
    11    4    5 1
    12    4   44 1
    13    4   45 1
    14    5    6 1
    15    5   46 1
    16    5   47 1
    17    6    7 1
    18    6   48 1
    19    6   49 1
    20    7    8 1
    21    7   50 1
    22    7   51 1
    23    8    9 1
    24    8   52 1
    25    8   53 1
    26    9   10 1
    27    9   54 1
    28    9   55 1
    29   10   11 2
    30   10   12 am
    31   12   13 1
    32   12   56 1
    33   13   14 1
    34   13   15 1
    35   13   28 1
    36   15   16 1
    37   15   57 1
    38   15   58 1
    39   16   17 1
    40   16   59 1
    41   16   77 1
    42   17   22 1
    43   17   18 1
    44   17   60 1
    45   18   19 2
    46   18   61 1
    47   19   20 1
    48   19   26 1
    49   20   21 1
    50   20   25 1
    51   20   62 1
    52   21   22 1
    53   21   24 1
    54   21   63 1
    55   22   23 1
    56   22   64 1
    57   23   65 1
    58   24   66 1
    59   25   67 1
    60   26   27 1
    61   26   68 1
    62   26   69 1
    63   27   70 1
    64   28   29 1
    65   28   30 1
    66   28   36 1
    67   30   35 ar
    68   30   31 ar
    69   31   32 ar
    70   31   71 1
    71   32   33 ar
    72   32   72 1
    73   33   34 ar
    74   33   73 1
    75   34   35 ar
    76   34   74 1
    77   35   75 1
    78   36   76 1
@<TRIPOS>MOLECULE
CHEMBL57497__13
   76    77     0     0     0
SMALL
USER_CHARGES

@<TRIPOS>ATOM
      1 C1         -0.0187    1.5258    0.0104 C.3       1 <0>        -0.1541
      2 C2          0.0021   -0.0041    0.0020 C.3       1 <0>        -0.1263
      3 C3          0.7182   -0.4975   -1.2568 C.3       1 <0>        -0.1209
      4 C4          0.7390   -2.0273   -1.2652 C.3       1 <0>        -0.1214
      5 C5          1.4551   -2.5207   -2.5240 C.3       1 <0>        -0.1198
      6 C6          1.4758   -4.0506   -2.5324 C.3       1 <0>        -0.1193
      7 C7          2.1920   -4.5440   -3.7912 C.3       1 <0>        -0.1196
      8 C8          2.2127   -6.0738   -3.7996 C.3       1 <0>        -0.1002
      9 C9          2.9289   -6.5673   -5.0584 C.3       1 <0>        -0.1384
     10 C10         2.9493   -8.0741   -5.0667 C.2       1 <0>         0.5137
     11 O1          2.4411   -8.6925   -4.1555 O.2       1 <0>        -0.5220
     12 N1          3.5323   -8.7345   -6.0867 N.am      1 <0>        -0.7109
     13 C11         3.5522  -10.1994   -6.0948 C.3       1 <0>         0.1275
     14 H1          2.6300  -10.5777   -5.6537 H         1 <0>         0.0942
     15 C12         3.6711  -10.6999   -7.5357 C.3       1 <0>         0.0398
     16 N2          2.5886  -10.1243   -8.3449 N.3       1 <0>        -0.6569
     17 C13         2.6710  -10.5839   -9.7377 C.3       1 <0>         0.1234
     18 C14         3.6334   -9.7142  -10.4924 C.2       1 <0>        -0.0785
     19 C15         3.4234   -9.2693  -11.6897 C.2       1 <0>        -0.1780
     20 C16         2.1836   -9.5524  -12.4864 C.3       1 <0>         0.1290
     21 C17         1.4324  -10.7433  -11.8872 C.3       1 <0>         0.0805
     22 C18         1.2830  -10.5131  -10.3782 C.3       1 <0>         0.1179
     23 O2          0.7108   -9.2249  -10.1434 O.3       1 <0>        -0.5250
     24 O3          0.1398  -10.8472  -12.4875 O.3       1 <0>        -0.5516
     25 O4          1.3369   -8.4013  -12.4699 O.3       1 <0>        -0.5329
     26 C19         4.4902   -8.4136  -12.3227 C.3       1 <0>         0.1138
     27 O5          5.5810   -8.2611  -11.4123 O.3       1 <0>        -0.5684
     28 C20         4.7485  -10.6977   -5.2814 C.3       1 <0>         0.1380
     29 H2          5.6706  -10.3194   -5.7225 H         1 <0>         0.0644
     30 C21         4.6313  -10.2047   -3.8622 C.ar      1 <0>        -0.0652
     31 C22         3.8849  -10.9172   -2.9424 C.ar      1 <0>        -0.0723
     32 C23         3.7775  -10.4650   -1.6405 C.ar      1 <0>        -0.1158
     33 C24         4.4169   -9.3005   -1.2583 C.ar      1 <0>        -0.1135
     34 C25         5.1641   -8.5885   -2.1779 C.ar      1 <0>        -0.1185
     35 C26         5.2750   -9.0430   -3.4787 C.ar      1 <0>        -0.1103
     36 O6          4.7678  -12.1265   -5.2893 O.3       1 <0>        -0.5545
     37 H3          1.0039    1.9031    0.0027 H         1 <0>         0.0531
     38 H4         -0.5459    1.8868   -0.8726 H         1 <0>         0.0532
     39 H5         -0.5289    1.8773    0.9072 H         1 <0>         0.0532
     40 H6          0.5293   -0.3651    0.8851 H         1 <0>         0.0602
     41 H7         -1.0205   -0.3814    0.0098 H         1 <0>         0.0603
     42 H8          0.1910   -0.1364   -2.1398 H         1 <0>         0.0604
     43 H9          1.7408   -0.1202   -1.2645 H         1 <0>         0.0602
     44 H10         1.2661   -2.3884   -0.3821 H         1 <0>         0.0605
     45 H11        -0.2836   -2.4046   -1.2575 H         1 <0>         0.0606
     46 H12         0.9279   -2.1597   -3.4071 H         1 <0>         0.0602
     47 H13         2.4777   -2.1435   -2.5317 H         1 <0>         0.0600
     48 H14         2.0030   -4.4117   -1.6494 H         1 <0>         0.0611
     49 H15         0.4533   -4.4279   -2.5247 H         1 <0>         0.0612
     50 H16         1.6648   -4.1829   -4.6743 H         1 <0>         0.0606
     51 H17         3.2146   -4.1667   -3.7990 H         1 <0>         0.0601
     52 H18         2.7399   -6.4349   -2.9166 H         1 <0>         0.0688
     53 H19         1.1901   -6.4511   -3.7919 H         1 <0>         0.0669
     54 H20         2.4017   -6.2062   -5.9415 H         1 <0>         0.0901
     55 H21         3.9515   -6.1900   -5.0662 H         1 <0>         0.0868
     56 H22         3.9388   -8.2400   -6.8155 H         1 <0>         0.4039
     57 H23         4.6335  -10.3962   -7.9476 H         1 <0>         0.0819
     58 H24         3.5966  -11.7872   -7.5499 H         1 <0>         0.0467
     59 H25         1.6865  -10.3378   -7.9464 H         1 <0>         0.3520
     60 H26         3.0260  -11.6142   -9.7578 H         1 <0>         0.0677
     61 H27         4.5586   -9.4423  -10.0061 H         1 <0>         0.1263
     62 H28         2.4599   -9.7803  -13.5159 H         1 <0>         0.0566
     63 H29         1.9966  -11.6590  -12.0642 H         1 <0>         0.0749
     64 H30         0.6427  -11.2851   -9.9513 H         1 <0>         0.0609
     65 H31        -0.1712   -9.1112  -10.5232 H         1 <0>         0.3819
     66 H32         0.1603  -10.9775  -13.4455 H         1 <0>         0.3834
     67 H33         1.7437   -7.6084  -12.8452 H         1 <0>         0.3729
     68 H34         4.8437   -8.8906  -13.2368 H         1 <0>         0.0534
     69 H35         4.0761   -7.4338  -12.5609 H         1 <0>         0.0544
     70 H36         6.3061   -7.7204  -11.7543 H         1 <0>         0.3839
     71 H37         3.3853  -11.8270   -3.2410 H         1 <0>         0.1177
     72 H38         3.1937  -11.0213   -0.9221 H         1 <0>         0.1162
     73 H39         4.3323   -8.9468   -0.2414 H         1 <0>         0.1159
     74 H40         5.6633   -7.6785   -1.8794 H         1 <0>         0.1161
     75 H41         5.8618   -8.4887   -4.1962 H         1 <0>         0.1110
     76 H42         4.8418  -12.5140   -6.1722 H         1 <0>         0.3764
@<TRIPOS>BOND
     1    1    2 1
     2    1   37 1
     3    1   38 1
     4    1   39 1
     5    2    3 1
     6    2   40 1
     7    2   41 1
     8    3    4 1
     9    3   42 1
    10    3   43 1
    11    4    5 1
    12    4   44 1
    13    4   45 1
    14    5    6 1
    15    5   46 1
    16    5   47 1
    17    6    7 1
    18    6   48 1
    19    6   49 1
    20    7    8 1
    21    7   50 1
    22    7   51 1
    23    8    9 1
    24    8   52 1
    25    8   53 1
    26    9   10 1
    27    9   54 1
    28    9   55 1
    29   10   11 2
    30   10   12 am
    31   12   13 1
    32   12   56 1
    33   13   14 1
    34   13   15 1
    35   13   28 1
    36   15   16 1
    37   15   57 1
    38   15   58 1
    39   16   17 1
    40   16   59 1
    41   17   22 1
    42   17   18 1
    43   17   60 1
    44   18   19 2
    45   18   61 1
    46   19   20 1
    47   19   26 1
    48   20   21 1
    49   20   25 1
    50   20   62 1
    51   21   22 1
    52   21   24 1
    53   21   63 1
    54   22   23 1
    55   22   64 1
    56   23   65 1
    57   24   66 1
    58   25   67 1
    59   26   27 1
    60   26   68 1
    61   26   69 1
    62   27   70 1
    63   28   29 1
    64   28   30 1
    65   28   36 1
    66   30   35 ar
    67   30   31 ar
    68   31   32 ar
    69   31   71 1
    70   32   33 ar
    71   32   72 1
    72   33   34 ar
    73   33   73 1
    74   34   35 ar
    75   34   74 1
    76   35   75 1
    77   36   76 1
@<TRIPOS>MOLECULE
CHEMBL57497__14
   77    78     0     0     0
SMALL
USER_CHARGES

@<TRIPOS>ATOM
      1 C1         -0.0187    1.5258    0.0104 C.3       1 <0>        -0.1550
      2 C2          0.0021   -0.0041    0.0020 C.3       1 <0>        -0.1264
      3 C3         -1.4333   -0.5336    0.0129 C.3       1 <0>        -0.1210
      4 C4         -1.4126   -2.0635    0.0045 C.3       1 <0>        -0.1218
      5 C5         -2.8479   -2.5931    0.0153 C.3       1 <0>        -0.1200
      6 C6         -2.8272   -4.1229    0.0069 C.3       1 <0>        -0.1201
      7 C7         -4.2626   -4.6525    0.0178 C.3       1 <0>        -0.1198
      8 C8         -4.2418   -6.1823    0.0094 C.3       1 <0>        -0.1040
      9 C9         -5.6772   -6.7119    0.0202 C.3       1 <0>        -0.1395
     10 C10        -5.6568   -8.2187    0.0119 C.2       1 <0>         0.5146
     11 O1         -4.5984   -8.8108   -0.0014 O.2       1 <0>        -0.4900
     12 N1         -6.8147   -8.9084    0.0193 N.am      1 <0>        -0.7517
     13 C11        -6.7948  -10.3733    0.0112 C.3       1 <0>         0.0954
     14 H1         -5.9426  -10.7283    0.5907 H         1 <0>         0.1170
     15 C12        -8.0892  -10.9043    0.6304 C.3       1 <0>        -0.0180
     16 N2         -8.2633  -10.3282    1.9705 N.4       1 <0>        -0.4993
     17 C13        -9.5062  -10.8381    2.5650 C.3       1 <0>         0.0790
     18 C14       -10.6767  -10.3618    1.7556 C.2       1 <0>        -0.1921
     19 C15       -11.7786   -9.9151    2.2673 C.2       1 <0>        -0.0875
     20 C16       -12.0355   -9.8011    3.7414 C.3       1 <0>         0.0970
     21 C17       -11.0321  -10.6557    4.5189 C.3       1 <0>         0.0949
     22 C18        -9.6225  -10.3360    4.0058 C.3       1 <0>         0.0962
     23 O2         -8.6528  -10.9941    4.8235 O.3       1 <0>        -0.5627
     24 O3        -11.1173  -10.3484    5.9119 O.3       1 <0>        -0.5441
     25 O4        -11.9044   -8.4354    4.1409 O.3       1 <0>        -0.5383
     26 C19       -12.8711   -9.4820    1.3240 C.3       1 <0>         0.0961
     27 O5        -12.4365   -9.6660   -0.0248 O.3       1 <0>        -0.5746
     28 C20        -6.6759  -10.8738   -1.4297 C.3       1 <0>         0.1484
     29 H2         -7.5282  -10.5188   -2.0091 H         1 <0>         0.1167
     30 C21        -5.4009  -10.3508   -2.0396 C.ar      1 <0>        -0.1163
     31 C22        -4.2136  -11.0330   -1.8505 C.ar      1 <0>        -0.0913
     32 C23        -3.0441  -10.5533   -2.4099 C.ar      1 <0>        -0.1050
     33 C24        -3.0620   -9.3915   -3.1588 C.ar      1 <0>        -0.1041
     34 C25        -4.2494   -8.7097   -3.3486 C.ar      1 <0>        -0.1122
     35 C26        -5.4197   -9.1918   -2.7928 C.ar      1 <0>        -0.1085
     36 O6         -6.6565  -12.3026   -1.4375 O.3       1 <0>        -0.5462
     37 H3          1.0039    1.9031    0.0027 H         1 <0>         0.0549
     38 H4         -0.5459    1.8868   -0.8726 H         1 <0>         0.0536
     39 H5         -0.5289    1.8773    0.9072 H         1 <0>         0.0534
     40 H6          0.5123   -0.3556   -0.8948 H         1 <0>         0.0607
     41 H7          0.5293   -0.3651    0.8851 H         1 <0>         0.0605
     42 H8         -1.9435   -0.1821    0.9097 H         1 <0>         0.0605
     43 H9         -1.9605   -0.1726   -0.8702 H         1 <0>         0.0607
     44 H10        -0.9024   -2.4150   -0.8923 H         1 <0>         0.0612
     45 H11        -0.8854   -2.4246    0.8875 H         1 <0>         0.0610
     46 H12        -3.3581   -2.2415    0.9121 H         1 <0>         0.0604
     47 H13        -3.3751   -2.2320   -0.8677 H         1 <0>         0.0609
     48 H14        -2.3170   -4.4744   -0.8899 H         1 <0>         0.0626
     49 H15        -2.3000   -4.4840    0.8900 H         1 <0>         0.0619
     50 H16        -4.7728   -4.3010    0.9146 H         1 <0>         0.0614
     51 H17        -4.7898   -4.2914   -0.8653 H         1 <0>         0.0626
     52 H18        -3.7316   -6.5338   -0.8874 H         1 <0>         0.0725
     53 H19        -3.7146   -6.5434    0.8924 H         1 <0>         0.0693
     54 H20        -6.1874   -6.3604    0.9170 H         1 <0>         0.0929
     55 H21        -6.2044   -6.3508   -0.8628 H         1 <0>         0.0969
     56 H22        -7.6612   -8.4349    0.0299 H         1 <0>         0.4009
     57 H23        -8.9344  -10.6239    0.0018 H         1 <0>         0.1440
     58 H24        -8.0371  -11.9904    0.7058 H         1 <0>         0.1560
     59 H25        -7.4810  -10.5878    2.5524 H         1 <0>         0.4380
     60 H26        -9.4873  -11.9279    2.5625 H         1 <0>         0.1589
     61 H27       -10.5944  -10.3934    0.6792 H         1 <0>         0.1586
     62 H28       -13.0471  -10.1437    3.9593 H         1 <0>         0.0878
     63 H29       -11.2493  -11.7118    4.3596 H         1 <0>         0.0910
     64 H30        -9.4585   -9.2587    4.0328 H         1 <0>         0.0956
     65 H31        -8.6711  -10.7223    5.7514 H         1 <0>         0.4159
     66 H32       -11.9886  -10.5119    6.2981 H         1 <0>         0.3998
     67 H33       -12.5179   -7.8348    3.6960 H         1 <0>         0.3887
     68 H34       -13.7641  -10.0809    1.5029 H         1 <0>         0.0770
     69 H35       -13.0999   -8.4295    1.4916 H         1 <0>         0.0746
     70 H36       -13.0912   -9.4072   -0.6878 H         1 <0>         0.4004
     71 H37        -4.1997  -11.9407   -1.2654 H         1 <0>         0.1130
     72 H38        -2.1164  -11.0859   -2.2615 H         1 <0>         0.1227
     73 H39        -2.1481   -9.0163   -3.5952 H         1 <0>         0.1228
     74 H40        -4.2633   -7.8018   -3.9334 H         1 <0>         0.1214
     75 H41        -6.3481   -8.6612   -2.9442 H         1 <0>         0.1135
     76 H42        -5.9228  -12.6888   -0.9399 H         1 <0>         0.3821
     77 H43        -8.3116   -9.3228    1.9007 H         1 <0>         0.4231
@<TRIPOS>BOND
     1    1    2 1
     2    1   37 1
     3    1   38 1
     4    1   39 1
     5    2    3 1
     6    2   40 1
     7    2   41 1
     8    3    4 1
     9    3   42 1
    10    3   43 1
    11    4    5 1
    12    4   44 1
    13    4   45 1
    14    5    6 1
    15    5   46 1
    16    5   47 1
    17    6    7 1
    18    6   48 1
    19    6   49 1
    20    7    8 1
    21    7   50 1
    22    7   51 1
    23    8    9 1
    24    8   52 1
    25    8   53 1
    26    9   10 1
    27    9   54 1
    28    9   55 1
    29   10   11 2
    30   10   12 am
    31   12   13 1
    32   12   56 1
    33   13   14 1
    34   13   15 1
    35   13   28 1
    36   15   16 1
    37   15   57 1
    38   15   58 1
    39   16   17 1
    40   16   59 1
    41   16   77 1
    42   17   22 1
    43   17   18 1
    44   17   60 1
    45   18   19 2
    46   18   61 1
    47   19   20 1
    48   19   26 1
    49   20   21 1
    50   20   25 1
    51   20   62 1
    52   21   22 1
    53   21   24 1
    54   21   63 1
    55   22   23 1
    56   22   64 1
    57   23   65 1
    58   24   66 1
    59   25   67 1
    60   26   27 1
    61   26   68 1
    62   26   69 1
    63   27   70 1
    64   28   29 1
    65   28   30 1
    66   28   36 1
    67   30   35 ar
    68   30   31 ar
    69   31   32 ar
    70   31   71 1
    71   32   33 ar
    72   32   72 1
    73   33   34 ar
    74   33   73 1
    75   34   35 ar
    76   34   74 1
    77   35   75 1
    78   36   76 1
@<TRIPOS>MOLECULE
CHEMBL57497__15
   76    77     0     0     0
SMALL
USER_CHARGES

@<TRIPOS>ATOM
      1 C1         -0.0187    1.5258    0.0104 C.3       1 <0>        -0.1541
      2 C2          0.0021   -0.0041    0.0020 C.3       1 <0>        -0.1263
      3 C3          0.7182   -0.4975   -1.2568 C.3       1 <0>        -0.1209
      4 C4          0.7390   -2.0273   -1.2652 C.3       1 <0>        -0.1215
      5 C5          1.4551   -2.5207   -2.5240 C.3       1 <0>        -0.1197
      6 C6          1.4758   -4.0506   -2.5324 C.3       1 <0>        -0.1194
      7 C7          2.1920   -4.5440   -3.7912 C.3       1 <0>        -0.1194
      8 C8          2.2127   -6.0738   -3.7996 C.3       1 <0>        -0.1007
      9 C9          2.9289   -6.5673   -5.0584 C.3       1 <0>        -0.1383
     10 C10         2.9493   -8.0741   -5.0667 C.2       1 <0>         0.5123
     11 O1          2.4411   -8.6925   -4.1555 O.2       1 <0>        -0.5200
     12 N1          3.5323   -8.7345   -6.0867 N.am      1 <0>        -0.7125
     13 C11         3.5522  -10.1994   -6.0948 C.3       1 <0>         0.1264
     14 H1          2.6300  -10.5777   -5.6537 H         1 <0>         0.0954
     15 C12         3.6711  -10.6999   -7.5357 C.3       1 <0>         0.0425
     16 N2          2.5886  -10.1243   -8.3449 N.3       1 <0>        -0.6677
     17 C13         2.6710  -10.5839   -9.7377 C.3       1 <0>         0.1230
     18 C14         3.6334   -9.7142  -10.4924 C.2       1 <0>        -0.0804
     19 C15         3.4234   -9.2693  -11.6897 C.2       1 <0>        -0.1849
     20 C16         2.1836   -9.5524  -12.4864 C.3       1 <0>         0.1189
     21 C17         1.4324  -10.7433  -11.8872 C.3       1 <0>         0.0873
     22 C18         1.2830  -10.5131  -10.3782 C.3       1 <0>         0.1161
     23 O2          0.4436  -11.5252   -9.8186 O.3       1 <0>        -0.5644
     24 O3          0.1398  -10.8472  -12.4875 O.3       1 <0>        -0.5508
     25 O4          1.3369   -8.4013  -12.4699 O.3       1 <0>        -0.5435
     26 C19         4.4902   -8.4136  -12.3227 C.3       1 <0>         0.1136
     27 O5          5.5810   -8.2611  -11.4123 O.3       1 <0>        -0.5685
     28 C20         4.7485  -10.6977   -5.2814 C.3       1 <0>         0.1385
     29 H2          5.6706  -10.3194   -5.7225 H         1 <0>         0.0644
     30 C21         4.6313  -10.2047   -3.8622 C.ar      1 <0>        -0.0653
     31 C22         3.8849  -10.9172   -2.9424 C.ar      1 <0>        -0.0720
     32 C23         3.7775  -10.4650   -1.6405 C.ar      1 <0>        -0.1156
     33 C24         4.4169   -9.3005   -1.2583 C.ar      1 <0>        -0.1135
     34 C25         5.1641   -8.5885   -2.1779 C.ar      1 <0>        -0.1188
     35 C26         5.2750   -9.0430   -3.4787 C.ar      1 <0>        -0.1106
     36 O6          4.7678  -12.1265   -5.2893 O.3       1 <0>        -0.5542
     37 H3          1.0039    1.9031    0.0027 H         1 <0>         0.0531
     38 H4         -0.5459    1.8868   -0.8726 H         1 <0>         0.0532
     39 H5         -0.5289    1.8773    0.9072 H         1 <0>         0.0533
     40 H6          0.5293   -0.3651    0.8851 H         1 <0>         0.0603
     41 H7         -1.0205   -0.3814    0.0098 H         1 <0>         0.0603
     42 H8          0.1910   -0.1364   -2.1398 H         1 <0>         0.0603
     43 H9          1.7408   -0.1202   -1.2645 H         1 <0>         0.0602
     44 H10         1.2661   -2.3884   -0.3821 H         1 <0>         0.0606
     45 H11        -0.2836   -2.4046   -1.2575 H         1 <0>         0.0607
     46 H12         0.9279   -2.1597   -3.4071 H         1 <0>         0.0601
     47 H13         2.4777   -2.1435   -2.5317 H         1 <0>         0.0600
     48 H14         2.0030   -4.4117   -1.6494 H         1 <0>         0.0614
     49 H15         0.4533   -4.4279   -2.5247 H         1 <0>         0.0613
     50 H16         1.6648   -4.1829   -4.6743 H         1 <0>         0.0603
     51 H17         3.2146   -4.1667   -3.7990 H         1 <0>         0.0602
     52 H18         2.7399   -6.4349   -2.9166 H         1 <0>         0.0694
     53 H19         1.1901   -6.4511   -3.7919 H         1 <0>         0.0671
     54 H20         2.4017   -6.2062   -5.9415 H         1 <0>         0.0892
     55 H21         3.9515   -6.1900   -5.0662 H         1 <0>         0.0874
     56 H22         3.9388   -8.2400   -6.8155 H         1 <0>         0.4031
     57 H23         4.6335  -10.3962   -7.9476 H         1 <0>         0.0815
     58 H24         3.5966  -11.7872   -7.5499 H         1 <0>         0.0503
     59 H25         1.6865  -10.3378   -7.9464 H         1 <0>         0.3567
     60 H26         3.0260  -11.6142   -9.7578 H         1 <0>         0.0684
     61 H27         4.5586   -9.4423  -10.0061 H         1 <0>         0.1336
     62 H28         2.4599   -9.7803  -13.5159 H         1 <0>         0.0656
     63 H29         1.9966  -11.6590  -12.0642 H         1 <0>         0.0769
     64 H30         0.8465   -9.5305  -10.1991 H         1 <0>         0.0831
     65 H31        -0.4530  -11.5371  -10.1806 H         1 <0>         0.3927
     66 H32         0.1603  -10.9775  -13.4455 H         1 <0>         0.3847
     67 H33         1.7437   -7.6084  -12.8452 H         1 <0>         0.3780
     68 H34         4.8437   -8.8906  -13.2368 H         1 <0>         0.0563
     69 H35         4.0761   -7.4338  -12.5609 H         1 <0>         0.0560
     70 H36         6.3061   -7.7204  -11.7543 H         1 <0>         0.3855
     71 H37         3.3853  -11.8270   -3.2410 H         1 <0>         0.1181
     72 H38         3.1937  -11.0213   -0.9221 H         1 <0>         0.1163
     73 H39         4.3323   -8.9468   -0.2414 H         1 <0>         0.1159
     74 H40         5.6633   -7.6785   -1.8794 H         1 <0>         0.1160
     75 H41         5.8618   -8.4887   -4.1962 H         1 <0>         0.1109
     76 H42         4.8418  -12.5140   -6.1722 H         1 <0>         0.3771
@<TRIPOS>BOND
     1    1    2 1
     2    1   37 1
     3    1   38 1
     4    1   39 1
     5    2    3 1
     6    2   40 1
     7    2   41 1
     8    3    4 1
     9    3   42 1
    10    3   43 1
    11    4    5 1
    12    4   44 1
    13    4   45 1
    14    5    6 1
    15    5   46 1
    16    5   47 1
    17    6    7 1
    18    6   48 1
    19    6   49 1
    20    7    8 1
    21    7   50 1
    22    7   51 1
    23    8    9 1
    24    8   52 1
    25    8   53 1
    26    9   10 1
    27    9   54 1
    28    9   55 1
    29   10   11 2
    30   10   12 am
    31   12   13 1
    32   12   56 1
    33   13   14 1
    34   13   15 1
    35   13   28 1
    36   15   16 1
    37   15   57 1
    38   15   58 1
    39   16   17 1
    40   16   59 1
    41   17   22 1
    42   17   18 1
    43   17   60 1
    44   18   19 2
    45   18   61 1
    46   19   20 1
    47   19   26 1
    48   20   21 1
    49   20   25 1
    50   20   62 1
    51   21   22 1
    52   21   24 1
    53   21   63 1
    54   22   23 1
    55   22   64 1
    56   23   65 1
    57   24   66 1
    58   25   67 1
    59   26   27 1
    60   26   68 1
    61   26   69 1
    62   27   70 1
    63   28   29 1
    64   28   30 1
    65   28   36 1
    66   30   35 ar
    67   30   31 ar
    68   31   32 ar
    69   31   71 1
    70   32   33 ar
    71   32   72 1
    72   33   34 ar
    73   33   73 1
    74   34   35 ar
    75   34   74 1
    76   35   75 1
    77   36   76 1
@<TRIPOS>MOLECULE
CHEMBL57497__16
   77    78     0     0     0
SMALL
USER_CHARGES

@<TRIPOS>ATOM
      1 C1         -0.0187    1.5258    0.0104 C.3       1 <0>        -0.1550
      2 C2          0.0021   -0.0041    0.0020 C.3       1 <0>        -0.1263
      3 C3         -1.4333   -0.5336    0.0129 C.3       1 <0>        -0.1211
      4 C4         -1.4126   -2.0635    0.0045 C.3       1 <0>        -0.1217
      5 C5         -2.8479   -2.5931    0.0153 C.3       1 <0>        -0.1202
      6 C6         -2.8272   -4.1229    0.0069 C.3       1 <0>        -0.1199
      7 C7         -4.2626   -4.6525    0.0178 C.3       1 <0>        -0.1201
      8 C8         -4.2418   -6.1823    0.0094 C.3       1 <0>        -0.1037
      9 C9         -5.6772   -6.7119    0.0202 C.3       1 <0>        -0.1399
     10 C10        -5.6568   -8.2187    0.0119 C.2       1 <0>         0.5151
     11 O1         -4.5984   -8.8108   -0.0014 O.2       1 <0>        -0.4913
     12 N1         -6.8147   -8.9084    0.0193 N.am      1 <0>        -0.7521
     13 C11        -6.7948  -10.3733    0.0112 C.3       1 <0>         0.0957
     14 H1         -5.9426  -10.7283    0.5907 H         1 <0>         0.1162
     15 C12        -8.0892  -10.9043    0.6304 C.3       1 <0>        -0.0182
     16 N2         -8.2633  -10.3282    1.9705 N.4       1 <0>        -0.4997
     17 C13        -9.5062  -10.8381    2.5650 C.3       1 <0>         0.0798
     18 C14        -9.3902  -12.3208    2.7649 C.2       1 <0>        -0.1918
     19 C15        -9.7903  -12.9429    3.8272 C.2       1 <0>        -0.0880
     20 C16       -10.4163  -12.2669    5.0118 C.3       1 <0>         0.0969
     21 C17       -10.8945  -10.8652    4.6269 C.3       1 <0>         0.0953
     22 C18        -9.7493  -10.1428    3.9063 C.3       1 <0>         0.0959
     23 O2        -10.1081   -8.7779    3.6818 O.3       1 <0>        -0.5637
     24 O3        -11.2541  -10.1401    5.8046 O.3       1 <0>        -0.5443
     25 O4         -9.4540  -12.1670    6.0634 O.3       1 <0>        -0.5386
     26 C19        -9.6161  -14.4389    3.8778 C.3       1 <0>         0.0960
     27 O5         -9.0069  -14.8888    2.6659 O.3       1 <0>        -0.5737
     28 C20        -6.6759  -10.8738   -1.4297 C.3       1 <0>         0.1480
     29 H2         -7.5282  -10.5188   -2.0091 H         1 <0>         0.1169
     30 C21        -5.4009  -10.3508   -2.0396 C.ar      1 <0>        -0.1162
     31 C22        -4.2136  -11.0330   -1.8505 C.ar      1 <0>        -0.0914
     32 C23        -3.0441  -10.5533   -2.4099 C.ar      1 <0>        -0.1053
     33 C24        -3.0620   -9.3915   -3.1588 C.ar      1 <0>        -0.1041
     34 C25        -4.2494   -8.7097   -3.3486 C.ar      1 <0>        -0.1119
     35 C26        -5.4197   -9.1918   -2.7928 C.ar      1 <0>        -0.1084
     36 O6         -6.6565  -12.3026   -1.4375 O.3       1 <0>        -0.5455
     37 H3          1.0039    1.9031    0.0027 H         1 <0>         0.0548
     38 H4         -0.5459    1.8868   -0.8726 H         1 <0>         0.0537
     39 H5         -0.5289    1.8773    0.9072 H         1 <0>         0.0535
     40 H6          0.5123   -0.3556   -0.8948 H         1 <0>         0.0606
     41 H7          0.5293   -0.3651    0.8851 H         1 <0>         0.0604
     42 H8         -1.9435   -0.1821    0.9097 H         1 <0>         0.0605
     43 H9         -1.9605   -0.1726   -0.8702 H         1 <0>         0.0608
     44 H10        -0.9024   -2.4150   -0.8923 H         1 <0>         0.0611
     45 H11        -0.8854   -2.4246    0.8875 H         1 <0>         0.0608
     46 H12        -3.3581   -2.2415    0.9121 H         1 <0>         0.0606
     47 H13        -3.3751   -2.2320   -0.8677 H         1 <0>         0.0611
     48 H14        -2.3170   -4.4744   -0.8899 H         1 <0>         0.0624
     49 H15        -2.3000   -4.4840    0.8900 H         1 <0>         0.0617
     50 H16        -4.7728   -4.3010    0.9146 H         1 <0>         0.0617
     51 H17        -4.7898   -4.2914   -0.8653 H         1 <0>         0.0629
     52 H18        -3.7316   -6.5338   -0.8874 H         1 <0>         0.0722
     53 H19        -3.7146   -6.5434    0.8924 H         1 <0>         0.0689
     54 H20        -6.1874   -6.3604    0.9170 H         1 <0>         0.0939
     55 H21        -6.2044   -6.3508   -0.8628 H         1 <0>         0.0973
     56 H22        -7.6612   -8.4349    0.0299 H         1 <0>         0.4019
     57 H23        -8.9344  -10.6239    0.0018 H         1 <0>         0.1429
     58 H24        -8.0371  -11.9904    0.7058 H         1 <0>         0.1572
     59 H25        -7.4810  -10.5878    2.5524 H         1 <0>         0.4287
     60 H26       -10.3395  -10.6301    1.8939 H         1 <0>         0.1577
     61 H27        -8.9456  -12.9054    1.9730 H         1 <0>         0.1600
     62 H28       -11.2657  -12.8564    5.3569 H         1 <0>         0.0877
     63 H29       -11.7553  -10.9413    3.9626 H         1 <0>         0.0908
     64 H30        -8.8456  -10.1921    4.5137 H         1 <0>         0.0963
     65 H31       -10.2767   -8.2772    4.4917 H         1 <0>         0.4159
     66 H32       -11.9631  -10.5508    6.3182 H         1 <0>         0.3999
     67 H33        -9.1133  -13.0195    6.3671 H         1 <0>         0.3891
     68 H34        -8.9807  -14.7024    4.7234 H         1 <0>         0.0744
     69 H35       -10.5901  -14.9145    3.9931 H         1 <0>         0.0767
     70 H36        -8.8641  -15.8445    2.6287 H         1 <0>         0.4004
     71 H37        -4.1997  -11.9407   -1.2654 H         1 <0>         0.1126
     72 H38        -2.1164  -11.0859   -2.2615 H         1 <0>         0.1225
     73 H39        -2.1481   -9.0163   -3.5952 H         1 <0>         0.1228
     74 H40        -4.2633   -7.8018   -3.9334 H         1 <0>         0.1216
     75 H41        -6.3481   -8.6612   -2.9442 H         1 <0>         0.1139
     76 H42        -5.9228  -12.6888   -0.9399 H         1 <0>         0.3816
     77 H43        -8.3116   -9.3228    1.9007 H         1 <0>         0.4325
@<TRIPOS>BOND
     1    1    2 1
     2    1   37 1
     3    1   38 1
     4    1   39 1
     5    2    3 1
     6    2   40 1
     7    2   41 1
     8    3    4 1
     9    3   42 1
    10    3   43 1
    11    4    5 1
    12    4   44 1
    13    4   45 1
    14    5    6 1
    15    5   46 1
    16    5   47 1
    17    6    7 1
    18    6   48 1
    19    6   49 1
    20    7    8 1
    21    7   50 1
    22    7   51 1
    23    8    9 1
    24    8   52 1
    25    8   53 1
    26    9   10 1
    27    9   54 1
    28    9   55 1
    29   10   11 2
    30   10   12 am
    31   12   13 1
    32   12   56 1
    33   13   14 1
    34   13   15 1
    35   13   28 1
    36   15   16 1
    37   15   57 1
    38   15   58 1
    39   16   17 1
    40   16   59 1
    41   16   77 1
    42   17   22 1
    43   17   18 1
    44   17   60 1
    45   18   19 2
    46   18   61 1
    47   19   20 1
    48   19   26 1
    49   20   21 1
    50   20   25 1
    51   20   62 1
    52   21   22 1
    53   21   24 1
    54   21   63 1
    55   22   23 1
    56   22   64 1
    57   23   65 1
    58   24   66 1
    59   25   67 1
    60   26   27 1
    61   26   68 1
    62   26   69 1
    63   27   70 1
    64   28   29 1
    65   28   30 1
    66   28   36 1
    67   30   35 ar
    68   30   31 ar
    69   31   32 ar
    70   31   71 1
    71   32   33 ar
    72   32   72 1
    73   33   34 ar
    74   33   73 1
    75   34   35 ar
    76   34   74 1
    77   35   75 1
    78   36   76 1
@<TRIPOS>MOLECULE
CHEMBL57497__17
   76    77     0     0     0
SMALL
USER_CHARGES

@<TRIPOS>ATOM
      1 C1         -0.0187    1.5258    0.0104 C.3       1 <0>        -0.1541
      2 C2          0.0021   -0.0041    0.0020 C.3       1 <0>        -0.1263
      3 C3          0.7182   -0.4975   -1.2568 C.3       1 <0>        -0.1209
      4 C4          0.7390   -2.0273   -1.2652 C.3       1 <0>        -0.1214
      5 C5          1.4551   -2.5207   -2.5240 C.3       1 <0>        -0.1199
      6 C6          1.4758   -4.0506   -2.5324 C.3       1 <0>        -0.1193
      7 C7          2.1920   -4.5440   -3.7912 C.3       1 <0>        -0.1197
      8 C8          2.2127   -6.0738   -3.7996 C.3       1 <0>        -0.1004
      9 C9          2.9289   -6.5673   -5.0584 C.3       1 <0>        -0.1386
     10 C10         2.9493   -8.0741   -5.0667 C.2       1 <0>         0.5127
     11 O1          2.4411   -8.6925   -4.1555 O.2       1 <0>        -0.5219
     12 N1          3.5323   -8.7345   -6.0867 N.am      1 <0>        -0.7121
     13 C11         3.5522  -10.1994   -6.0948 C.3       1 <0>         0.1265
     14 H1          2.6300  -10.5777   -5.6537 H         1 <0>         0.0941
     15 C12         3.6711  -10.6999   -7.5357 C.3       1 <0>         0.0430
     16 N2          2.5886  -10.1243   -8.3449 N.3       1 <0>        -0.6590
     17 C13         2.6710  -10.5839   -9.7377 C.3       1 <0>         0.1237
     18 C14         1.9920  -11.9163   -9.8629 C.2       1 <0>        -0.1408
     19 C15         1.2078  -12.2418  -10.8400 C.2       1 <0>        -0.1667
     20 C16         0.8598  -11.3285  -11.9787 C.3       1 <0>         0.1162
     21 C17         1.8586  -10.1715  -12.0507 C.3       1 <0>         0.0835
     22 C18         1.9938   -9.5595  -10.6508 C.3       1 <0>         0.1360
     23 O2          2.7912   -8.3756  -10.7189 O.3       1 <0>        -0.5494
     24 O3          1.3816   -9.1811  -12.9638 O.3       1 <0>        -0.5496
     25 O4         -0.4560  -10.8067  -11.7823 O.3       1 <0>        -0.5426
     26 C19         0.6067  -13.6237  -10.8334 C.3       1 <0>         0.1085
     27 O5          1.0554  -14.3328   -9.6767 O.3       1 <0>        -0.5695
     28 C20         4.7485  -10.6977   -5.2814 C.3       1 <0>         0.1382
     29 H2          5.6706  -10.3194   -5.7225 H         1 <0>         0.0647
     30 C21         4.6313  -10.2047   -3.8622 C.ar      1 <0>        -0.0651
     31 C22         3.8849  -10.9172   -2.9424 C.ar      1 <0>        -0.0722
     32 C23         3.7775  -10.4650   -1.6405 C.ar      1 <0>        -0.1160
     33 C24         4.4169   -9.3005   -1.2583 C.ar      1 <0>        -0.1135
     34 C25         5.1641   -8.5885   -2.1779 C.ar      1 <0>        -0.1185
     35 C26         5.2750   -9.0430   -3.4787 C.ar      1 <0>        -0.1103
     36 O6          4.7678  -12.1265   -5.2893 O.3       1 <0>        -0.5544
     37 H3          1.0039    1.9031    0.0027 H         1 <0>         0.0532
     38 H4         -0.5459    1.8868   -0.8726 H         1 <0>         0.0532
     39 H5         -0.5289    1.8773    0.9072 H         1 <0>         0.0532
     40 H6          0.5293   -0.3651    0.8851 H         1 <0>         0.0602
     41 H7         -1.0205   -0.3814    0.0098 H         1 <0>         0.0602
     42 H8          0.1910   -0.1364   -2.1398 H         1 <0>         0.0604
     43 H9          1.7408   -0.1202   -1.2645 H         1 <0>         0.0603
     44 H10         1.2661   -2.3884   -0.3821 H         1 <0>         0.0605
     45 H11        -0.2836   -2.4046   -1.2575 H         1 <0>         0.0605
     46 H12         0.9279   -2.1597   -3.4071 H         1 <0>         0.0603
     47 H13         2.4777   -2.1435   -2.5317 H         1 <0>         0.0602
     48 H14         2.0030   -4.4117   -1.6494 H         1 <0>         0.0612
     49 H15         0.4533   -4.4279   -2.5247 H         1 <0>         0.0610
     50 H16         1.6648   -4.1829   -4.6743 H         1 <0>         0.0606
     51 H17         3.2146   -4.1667   -3.7990 H         1 <0>         0.0605
     52 H18         2.7399   -6.4349   -2.9166 H         1 <0>         0.0690
     53 H19         1.1901   -6.4511   -3.7919 H         1 <0>         0.0666
     54 H20         2.4017   -6.2062   -5.9415 H         1 <0>         0.0901
     55 H21         3.9515   -6.1900   -5.0662 H         1 <0>         0.0876
     56 H22         3.9388   -8.2400   -6.8155 H         1 <0>         0.4050
     57 H23         4.6335  -10.3962   -7.9476 H         1 <0>         0.0829
     58 H24         3.5966  -11.7872   -7.5499 H         1 <0>         0.0494
     59 H25         1.6865  -10.3378   -7.9464 H         1 <0>         0.3472
     60 H26         3.7180  -10.6859  -10.0231 H         1 <0>         0.0994
     61 H27         2.1689  -12.6494   -9.0898 H         1 <0>         0.1328
     62 H28         0.8882  -11.8890  -12.9131 H         1 <0>         0.0665
     63 H29         2.8276  -10.5441  -12.3829 H         1 <0>         0.0769
     64 H30         1.0055   -9.3172  -10.2601 H         1 <0>         0.0726
     65 H31         2.4197   -7.6830  -11.2823 H         1 <0>         0.3847
     66 H32         1.2576   -9.5055  -13.8663 H         1 <0>         0.3835
     67 H33        -1.1449  -11.4838  -11.7374 H         1 <0>         0.3778
     68 H34        -0.4804  -13.5469  -10.8134 H         1 <0>         0.0574
     69 H35         0.9167  -14.1591  -11.7308 H         1 <0>         0.0592
     70 H36         0.7071  -15.2322   -9.6070 H         1 <0>         0.3871
     71 H37         3.3853  -11.8270   -3.2410 H         1 <0>         0.1176
     72 H38         3.1937  -11.0213   -0.9221 H         1 <0>         0.1160
     73 H39         4.3323   -8.9468   -0.2414 H         1 <0>         0.1158
     74 H40         5.6633   -7.6785   -1.8794 H         1 <0>         0.1162
     75 H41         5.8618   -8.4887   -4.1962 H         1 <0>         0.1113
     76 H42         4.8418  -12.5140   -6.1722 H         1 <0>         0.3768
@<TRIPOS>BOND
     1    1    2 1
     2    1   37 1
     3    1   38 1
     4    1   39 1
     5    2    3 1
     6    2   40 1
     7    2   41 1
     8    3    4 1
     9    3   42 1
    10    3   43 1
    11    4    5 1
    12    4   44 1
    13    4   45 1
    14    5    6 1
    15    5   46 1
    16    5   47 1
    17    6    7 1
    18    6   48 1
    19    6   49 1
    20    7    8 1
    21    7   50 1
    22    7   51 1
    23    8    9 1
    24    8   52 1
    25    8   53 1
    26    9   10 1
    27    9   54 1
    28    9   55 1
    29   10   11 2
    30   10   12 am
    31   12   13 1
    32   12   56 1
    33   13   14 1
    34   13   15 1
    35   13   28 1
    36   15   16 1
    37   15   57 1
    38   15   58 1
    39   16   17 1
    40   16   59 1
    41   17   22 1
    42   17   18 1
    43   17   60 1
    44   18   19 2
    45   18   61 1
    46   19   20 1
    47   19   26 1
    48   20   21 1
    49   20   25 1
    50   20   62 1
    51   21   22 1
    52   21   24 1
    53   21   63 1
    54   22   23 1
    55   22   64 1
    56   23   65 1
    57   24   66 1
    58   25   67 1
    59   26   27 1
    60   26   68 1
    61   26   69 1
    62   27   70 1
    63   28   29 1
    64   28   30 1
    65   28   36 1
    66   30   35 ar
    67   30   31 ar
    68   31   32 ar
    69   31   71 1
    70   32   33 ar
    71   32   72 1
    72   33   34 ar
    73   33   73 1
    74   34   35 ar
    75   34   74 1
    76   35   75 1
    77   36   76 1
@<TRIPOS>MOLECULE
CHEMBL57497__18
   77    78     0     0     0
SMALL
USER_CHARGES

@<TRIPOS>ATOM
      1 C1         -0.0187    1.5258    0.0104 C.3       1 <0>        -0.1550
      2 C2          0.0021   -0.0041    0.0020 C.3       1 <0>        -0.1264
      3 C3         -1.4333   -0.5336    0.0129 C.3       1 <0>        -0.1211
      4 C4         -1.4126   -2.0635    0.0045 C.3       1 <0>        -0.1218
      5 C5         -2.8479   -2.5931    0.0153 C.3       1 <0>        -0.1201
      6 C6         -2.8272   -4.1229    0.0069 C.3       1 <0>        -0.1201
      7 C7         -4.2626   -4.6525    0.0178 C.3       1 <0>        -0.1199
      8 C8         -4.2418   -6.1823    0.0094 C.3       1 <0>        -0.1040
      9 C9         -5.6772   -6.7119    0.0202 C.3       1 <0>        -0.1393
     10 C10        -5.6568   -8.2187    0.0119 C.2       1 <0>         0.5148
     11 O1         -4.5984   -8.8108   -0.0014 O.2       1 <0>        -0.4900
     12 N1         -6.8147   -8.9084    0.0193 N.am      1 <0>        -0.7519
     13 C11        -6.7948  -10.3733    0.0112 C.3       1 <0>         0.0962
     14 H1         -5.9426  -10.7283    0.5907 H         1 <0>         0.1162
     15 C12        -8.0892  -10.9043    0.6304 C.3       1 <0>        -0.0188
     16 N2         -8.2633  -10.3282    1.9705 N.4       1 <0>        -0.4959
     17 C13        -9.5062  -10.8381    2.5650 C.3       1 <0>         0.0814
     18 C14        -9.3902  -12.3208    2.7649 C.2       1 <0>        -0.1912
     19 C15        -9.7903  -12.9429    3.8272 C.2       1 <0>        -0.0813
     20 C16       -10.4163  -12.2669    5.0118 C.3       1 <0>         0.1071
     21 C17       -10.8945  -10.8652    4.6269 C.3       1 <0>         0.0889
     22 C18        -9.7493  -10.1428    3.9063 C.3       1 <0>         0.0951
     23 O2         -8.5645  -10.2075    4.7026 O.3       1 <0>        -0.5522
     24 O3        -11.2541  -10.1401    5.8046 O.3       1 <0>        -0.5451
     25 O4         -9.4540  -12.1670    6.0634 O.3       1 <0>        -0.5288
     26 C19        -9.6161  -14.4389    3.8778 C.3       1 <0>         0.0962
     27 O5         -9.0069  -14.8888    2.6659 O.3       1 <0>        -0.5737
     28 C20        -6.6759  -10.8738   -1.4297 C.3       1 <0>         0.1481
     29 H2         -7.5282  -10.5188   -2.0091 H         1 <0>         0.1164
     30 C21        -5.4009  -10.3508   -2.0396 C.ar      1 <0>        -0.1161
     31 C22        -4.2136  -11.0330   -1.8505 C.ar      1 <0>        -0.0913
     32 C23        -3.0441  -10.5533   -2.4099 C.ar      1 <0>        -0.1051
     33 C24        -3.0620   -9.3915   -3.1588 C.ar      1 <0>        -0.1042
     34 C25        -4.2494   -8.7097   -3.3486 C.ar      1 <0>        -0.1121
     35 C26        -5.4197   -9.1918   -2.7928 C.ar      1 <0>        -0.1087
     36 O6         -6.6565  -12.3026   -1.4375 O.3       1 <0>        -0.5457
     37 H3          1.0039    1.9031    0.0027 H         1 <0>         0.0548
     38 H4         -0.5459    1.8868   -0.8726 H         1 <0>         0.0537
     39 H5         -0.5289    1.8773    0.9072 H         1 <0>         0.0535
     40 H6          0.5123   -0.3556   -0.8948 H         1 <0>         0.0606
     41 H7          0.5293   -0.3651    0.8851 H         1 <0>         0.0604
     42 H8         -1.9435   -0.1821    0.9097 H         1 <0>         0.0605
     43 H9         -1.9605   -0.1726   -0.8702 H         1 <0>         0.0608
     44 H10        -0.9024   -2.4150   -0.8923 H         1 <0>         0.0612
     45 H11        -0.8854   -2.4246    0.8875 H         1 <0>         0.0609
     46 H12        -3.3581   -2.2415    0.9121 H         1 <0>         0.0605
     47 H13        -3.3751   -2.2320   -0.8677 H         1 <0>         0.0610
     48 H14        -2.3170   -4.4744   -0.8899 H         1 <0>         0.0625
     49 H15        -2.3000   -4.4840    0.8900 H         1 <0>         0.0619
     50 H16        -4.7728   -4.3010    0.9146 H         1 <0>         0.0615
     51 H17        -4.7898   -4.2914   -0.8653 H         1 <0>         0.0627
     52 H18        -3.7316   -6.5338   -0.8874 H         1 <0>         0.0723
     53 H19        -3.7146   -6.5434    0.8924 H         1 <0>         0.0692
     54 H20        -6.1874   -6.3604    0.9170 H         1 <0>         0.0932
     55 H21        -6.2044   -6.3508   -0.8628 H         1 <0>         0.0969
     56 H22        -7.6612   -8.4349    0.0299 H         1 <0>         0.4002
     57 H23        -8.9344  -10.6239    0.0018 H         1 <0>         0.1413
     58 H24        -8.0371  -11.9904    0.7058 H         1 <0>         0.1567
     59 H25        -7.4810  -10.5878    2.5524 H         1 <0>         0.4387
     60 H26       -10.3395  -10.6301    1.8939 H         1 <0>         0.1574
     61 H27        -8.9456  -12.9054    1.9730 H         1 <0>         0.1529
     62 H28       -11.2657  -12.8564    5.3569 H         1 <0>         0.0790
     63 H29       -11.7553  -10.9413    3.9626 H         1 <0>         0.0886
     64 H30       -10.0230   -9.1017    3.7350 H         1 <0>         0.0937
     65 H31        -8.6489   -9.7849    5.5682 H         1 <0>         0.4150
     66 H32       -11.9631  -10.5508    6.3182 H         1 <0>         0.3985
     67 H33        -9.1133  -13.0195    6.3671 H         1 <0>         0.3842
     68 H34        -8.9807  -14.7024    4.7234 H         1 <0>         0.0727
     69 H35       -10.5901  -14.9145    3.9931 H         1 <0>         0.0738
     70 H36        -8.8641  -15.8445    2.6287 H         1 <0>         0.3988
     71 H37        -4.1997  -11.9407   -1.2654 H         1 <0>         0.1127
     72 H38        -2.1164  -11.0859   -2.2615 H         1 <0>         0.1225
     73 H39        -2.1481   -9.0163   -3.5952 H         1 <0>         0.1228
     74 H40        -4.2633   -7.8018   -3.9334 H         1 <0>         0.1214
     75 H41        -6.3481   -8.6612   -2.9442 H         1 <0>         0.1136
     76 H42        -5.9228  -12.6888   -0.9399 H         1 <0>         0.3820
     77 H43        -8.3116   -9.3228    1.9007 H         1 <0>         0.4243
@<TRIPOS>BOND
     1    1    2 1
     2    1   37 1
     3    1   38 1
     4    1   39 1
     5    2    3 1
     6    2   40 1
     7    2   41 1
     8    3    4 1
     9    3   42 1
    10    3   43 1
    11    4    5 1
    12    4   44 1
    13    4   45 1
    14    5    6 1
    15    5   46 1
    16    5   47 1
    17    6    7 1
    18    6   48 1
    19    6   49 1
    20    7    8 1
    21    7   50 1
    22    7   51 1
    23    8    9 1
    24    8   52 1
    25    8   53 1
    26    9   10 1
    27    9   54 1
    28    9   55 1
    29   10   11 2
    30   10   12 am
    31   12   13 1
    32   12   56 1
    33   13   14 1
    34   13   15 1
    35   13   28 1
    36   15   16 1
    37   15   57 1
    38   15   58 1
    39   16   17 1
    40   16   59 1
    41   16   77 1
    42   17   22 1
    43   17   18 1
    44   17   60 1
    45   18   19 2
    46   18   61 1
    47   19   20 1
    48   19   26 1
    49   20   21 1
    50   20   25 1
    51   20   62 1
    52   21   22 1
    53   21   24 1
    54   21   63 1
    55   22   23 1
    56   22   64 1
    57   23   65 1
    58   24   66 1
    59   25   67 1
    60   26   27 1
    61   26   68 1
    62   26   69 1
    63   27   70 1
    64   28   29 1
    65   28   30 1
    66   28   36 1
    67   30   35 ar
    68   30   31 ar
    69   31   32 ar
    70   31   71 1
    71   32   33 ar
    72   32   72 1
    73   33   34 ar
    74   33   73 1
    75   34   35 ar
    76   34   74 1
    77   35   75 1
    78   36   76 1
@<TRIPOS>MOLECULE
CHEMBL57497__19
   76    77     0     0     0
SMALL
USER_CHARGES

@<TRIPOS>ATOM
      1 C1         -0.0187    1.5258    0.0104 C.3       1 <0>        -0.1541
      2 C2          0.0021   -0.0041    0.0020 C.3       1 <0>        -0.1263
      3 C3          0.7182   -0.4975   -1.2568 C.3       1 <0>        -0.1209
      4 C4          0.7390   -2.0273   -1.2652 C.3       1 <0>        -0.1214
      5 C5          1.4551   -2.5207   -2.5240 C.3       1 <0>        -0.1198
      6 C6          1.4758   -4.0506   -2.5324 C.3       1 <0>        -0.1194
      7 C7          2.1920   -4.5440   -3.7912 C.3       1 <0>        -0.1195
      8 C8          2.2127   -6.0738   -3.7996 C.3       1 <0>        -0.1006
      9 C9          2.9289   -6.5673   -5.0584 C.3       1 <0>        -0.1383
     10 C10         2.9493   -8.0741   -5.0667 C.2       1 <0>         0.5130
     11 O1          2.4411   -8.6925   -4.1555 O.2       1 <0>        -0.5205
     12 N1          3.5323   -8.7345   -6.0867 N.am      1 <0>        -0.7123
     13 C11         3.5522  -10.1994   -6.0948 C.3       1 <0>         0.1269
     14 H1          2.6300  -10.5777   -5.6537 H         1 <0>         0.0945
     15 C12         3.6711  -10.6999   -7.5357 C.3       1 <0>         0.0389
     16 N2          2.5886  -10.1243   -8.3449 N.3       1 <0>        -0.6576
     17 C13         2.6710  -10.5839   -9.7377 C.3       1 <0>         0.1248
     18 C14         1.9920  -11.9163   -9.8629 C.2       1 <0>        -0.1399
     19 C15         1.2078  -12.2418  -10.8400 C.2       1 <0>        -0.1604
     20 C16         0.8598  -11.3285  -11.9787 C.3       1 <0>         0.1264
     21 C17         1.8586  -10.1715  -12.0507 C.3       1 <0>         0.0772
     22 C18         1.9938   -9.5595  -10.6508 C.3       1 <0>         0.1348
     23 O2          0.6981   -9.2419  -10.1386 O.3       1 <0>        -0.5348
     24 O3          1.3816   -9.1811  -12.9638 O.3       1 <0>        -0.5506
     25 O4         -0.4560  -10.8067  -11.7823 O.3       1 <0>        -0.5320
     26 C19         0.6067  -13.6237  -10.8334 C.3       1 <0>         0.1087
     27 O5          1.0554  -14.3328   -9.6767 O.3       1 <0>        -0.5694
     28 C20         4.7485  -10.6977   -5.2814 C.3       1 <0>         0.1384
     29 H2          5.6706  -10.3194   -5.7225 H         1 <0>         0.0641
     30 C21         4.6313  -10.2047   -3.8622 C.ar      1 <0>        -0.0654
     31 C22         3.8849  -10.9172   -2.9424 C.ar      1 <0>        -0.0721
     32 C23         3.7775  -10.4650   -1.6405 C.ar      1 <0>        -0.1158
     33 C24         4.4169   -9.3005   -1.2583 C.ar      1 <0>        -0.1135
     34 C25         5.1641   -8.5885   -2.1779 C.ar      1 <0>        -0.1187
     35 C26         5.2750   -9.0430   -3.4787 C.ar      1 <0>        -0.1106
     36 O6          4.7678  -12.1265   -5.2893 O.3       1 <0>        -0.5542
     37 H3          1.0039    1.9031    0.0027 H         1 <0>         0.0531
     38 H4         -0.5459    1.8868   -0.8726 H         1 <0>         0.0532
     39 H5         -0.5289    1.8773    0.9072 H         1 <0>         0.0532
     40 H6          0.5293   -0.3651    0.8851 H         1 <0>         0.0602
     41 H7         -1.0205   -0.3814    0.0098 H         1 <0>         0.0603
     42 H8          0.1910   -0.1364   -2.1398 H         1 <0>         0.0604
     43 H9          1.7408   -0.1202   -1.2645 H         1 <0>         0.0602
     44 H10         1.2661   -2.3884   -0.3821 H         1 <0>         0.0605
     45 H11        -0.2836   -2.4046   -1.2575 H         1 <0>         0.0606
     46 H12         0.9279   -2.1597   -3.4071 H         1 <0>         0.0603
     47 H13         2.4777   -2.1435   -2.5317 H         1 <0>         0.0600
     48 H14         2.0030   -4.4117   -1.6494 H         1 <0>         0.0612
     49 H15         0.4533   -4.4279   -2.5247 H         1 <0>         0.0612
     50 H16         1.6648   -4.1829   -4.6743 H         1 <0>         0.0606
     51 H17         3.2146   -4.1667   -3.7990 H         1 <0>         0.0602
     52 H18         2.7399   -6.4349   -2.9166 H         1 <0>         0.0690
     53 H19         1.1901   -6.4511   -3.7919 H         1 <0>         0.0671
     54 H20         2.4017   -6.2062   -5.9415 H         1 <0>         0.0900
     55 H21         3.9515   -6.1900   -5.0662 H         1 <0>         0.0871
     56 H22         3.9388   -8.2400   -6.8155 H         1 <0>         0.4027
     57 H23         4.6335  -10.3962   -7.9476 H         1 <0>         0.0804
     58 H24         3.5966  -11.7872   -7.5499 H         1 <0>         0.0492
     59 H25         1.6865  -10.3378   -7.9464 H         1 <0>         0.3573
     60 H26         3.7180  -10.6859  -10.0231 H         1 <0>         0.0985
     61 H27         2.1689  -12.6494   -9.0898 H         1 <0>         0.1252
     62 H28         0.8882  -11.8890  -12.9131 H         1 <0>         0.0574
     63 H29         2.8276  -10.5441  -12.3829 H         1 <0>         0.0749
     64 H30         2.6021   -8.6564  -10.7027 H         1 <0>         0.0678
     65 H31         0.2123   -8.5966  -10.6703 H         1 <0>         0.3826
     66 H32         1.2576   -9.5055  -13.8663 H         1 <0>         0.3822
     67 H33        -1.1449  -11.4838  -11.7374 H         1 <0>         0.3727
     68 H34        -0.4804  -13.5469  -10.8134 H         1 <0>         0.0557
     69 H35         0.9167  -14.1591  -11.7308 H         1 <0>         0.0562
     70 H36         0.7071  -15.2322   -9.6070 H         1 <0>         0.3855
     71 H37         3.3853  -11.8270   -3.2410 H         1 <0>         0.1178
     72 H38         3.1937  -11.0213   -0.9221 H         1 <0>         0.1162
     73 H39         4.3323   -8.9468   -0.2414 H         1 <0>         0.1159
     74 H40         5.6633   -7.6785   -1.8794 H         1 <0>         0.1161
     75 H41         5.8618   -8.4887   -4.1962 H         1 <0>         0.1110
     76 H42         4.8418  -12.5140   -6.1722 H         1 <0>         0.3769
@<TRIPOS>BOND
     1    1    2 1
     2    1   37 1
     3    1   38 1
     4    1   39 1
     5    2    3 1
     6    2   40 1
     7    2   41 1
     8    3    4 1
     9    3   42 1
    10    3   43 1
    11    4    5 1
    12    4   44 1
    13    4   45 1
    14    5    6 1
    15    5   46 1
    16    5   47 1
    17    6    7 1
    18    6   48 1
    19    6   49 1
    20    7    8 1
    21    7   50 1
    22    7   51 1
    23    8    9 1
    24    8   52 1
    25    8   53 1
    26    9   10 1
    27    9   54 1
    28    9   55 1
    29   10   11 2
    30   10   12 am
    31   12   13 1
    32   12   56 1
    33   13   14 1
    34   13   15 1
    35   13   28 1
    36   15   16 1
    37   15   57 1
    38   15   58 1
    39   16   17 1
    40   16   59 1
    41   17   22 1
    42   17   18 1
    43   17   60 1
    44   18   19 2
    45   18   61 1
    46   19   20 1
    47   19   26 1
    48   20   21 1
    49   20   25 1
    50   20   62 1
    51   21   22 1
    52   21   24 1
    53   21   63 1
    54   22   23 1
    55   22   64 1
    56   23   65 1
    57   24   66 1
    58   25   67 1
    59   26   27 1
    60   26   68 1
    61   26   69 1
    62   27   70 1
    63   28   29 1
    64   28   30 1
    65   28   36 1
    66   30   35 ar
    67   30   31 ar
    68   31   32 ar
    69   31   71 1
    70   32   33 ar
    71   32   72 1
    72   33   34 ar
    73   33   73 1
    74   34   35 ar
    75   34   74 1
    76   35   75 1
    77   36   76 1
@<TRIPOS>MOLECULE
CHEMBL57497__20
   77    78     0     0     0
SMALL
USER_CHARGES

@<TRIPOS>ATOM
      1 C1         -0.0187    1.5258    0.0104 C.3       1 <0>        -0.1550
      2 C2          0.0021   -0.0041    0.0020 C.3       1 <0>        -0.1263
      3 C3         -1.4333   -0.5336    0.0129 C.3       1 <0>        -0.1211
      4 C4         -1.4126   -2.0635    0.0045 C.3       1 <0>        -0.1218
      5 C5         -2.8479   -2.5931    0.0153 C.3       1 <0>        -0.1201
      6 C6         -2.8272   -4.1229    0.0069 C.3       1 <0>        -0.1200
      7 C7         -4.2626   -4.6525    0.0178 C.3       1 <0>        -0.1200
      8 C8         -4.2418   -6.1823    0.0094 C.3       1 <0>        -0.1040
      9 C9         -5.6772   -6.7119    0.0202 C.3       1 <0>        -0.1397
     10 C10        -5.6568   -8.2187    0.0119 C.2       1 <0>         0.5142
     11 O1         -4.5984   -8.8108   -0.0014 O.2       1 <0>        -0.4895
     12 N1         -6.8147   -8.9084    0.0193 N.am      1 <0>        -0.7531
     13 C11        -6.7948  -10.3733    0.0112 C.3       1 <0>         0.0946
     14 H1         -5.9426  -10.7283    0.5907 H         1 <0>         0.1161
     15 C12        -8.0892  -10.9043    0.6304 C.3       1 <0>        -0.0139
     16 N2         -8.2633  -10.3282    1.9705 N.4       1 <0>        -0.5032
     17 C13        -9.5062  -10.8381    2.5650 C.3       1 <0>         0.0740
     18 C14        -9.3902  -12.3208    2.7649 C.2       1 <0>        -0.1969
     19 C15        -9.1668  -12.8831    3.9092 C.2       1 <0>        -0.0732
     20 C16        -9.0031  -12.1314    5.1977 C.3       1 <0>         0.1008
     21 C17        -8.7130  -10.6559    4.9139 C.3       1 <0>         0.0790
     22 C18        -9.7493  -10.1428    3.9063 C.3       1 <0>         0.1022
     23 O2        -11.0649  -10.4474    4.3736 O.3       1 <0>        -0.5365
     24 O3         -8.8094   -9.9056    6.1262 O.3       1 <0>        -0.5489
     25 O4         -7.9186  -12.6932    5.9394 O.3       1 <0>        -0.5555
     26 C19        -9.0654  -14.3861    3.9502 C.3       1 <0>         0.0922
     27 O5         -9.2484  -14.9120    2.6342 O.3       1 <0>        -0.5698
     28 C20        -6.6759  -10.8738   -1.4297 C.3       1 <0>         0.1484
     29 H2         -7.5282  -10.5188   -2.0091 H         1 <0>         0.1174
     30 C21        -5.4009  -10.3508   -2.0396 C.ar      1 <0>        -0.1167
     31 C22        -4.2136  -11.0330   -1.8505 C.ar      1 <0>        -0.0914
     32 C23        -3.0441  -10.5533   -2.4099 C.ar      1 <0>        -0.1051
     33 C24        -3.0620   -9.3915   -3.1588 C.ar      1 <0>        -0.1039
     34 C25        -4.2494   -8.7097   -3.3486 C.ar      1 <0>        -0.1120
     35 C26        -5.4197   -9.1918   -2.7928 C.ar      1 <0>        -0.1084
     36 O6         -6.6565  -12.3026   -1.4375 O.3       1 <0>        -0.5448
     37 H3          1.0039    1.9031    0.0027 H         1 <0>         0.0549
     38 H4         -0.5459    1.8868   -0.8726 H         1 <0>         0.0537
     39 H5         -0.5289    1.8773    0.9072 H         1 <0>         0.0535
     40 H6          0.5123   -0.3556   -0.8948 H         1 <0>         0.0607
     41 H7          0.5293   -0.3651    0.8851 H         1 <0>         0.0604
     42 H8         -1.9435   -0.1821    0.9097 H         1 <0>         0.0605
     43 H9         -1.9605   -0.1726   -0.8702 H         1 <0>         0.0609
     44 H10        -0.9024   -2.4150   -0.8923 H         1 <0>         0.0612
     45 H11        -0.8854   -2.4246    0.8875 H         1 <0>         0.0608
     46 H12        -3.3581   -2.2415    0.9121 H         1 <0>         0.0605
     47 H13        -3.3751   -2.2320   -0.8677 H         1 <0>         0.0611
     48 H14        -2.3170   -4.4744   -0.8899 H         1 <0>         0.0626
     49 H15        -2.3000   -4.4840    0.8900 H         1 <0>         0.0617
     50 H16        -4.7728   -4.3010    0.9146 H         1 <0>         0.0615
     51 H17        -4.7898   -4.2914   -0.8653 H         1 <0>         0.0630
     52 H18        -3.7316   -6.5338   -0.8874 H         1 <0>         0.0726
     53 H19        -3.7146   -6.5434    0.8924 H         1 <0>         0.0690
     54 H20        -6.1874   -6.3604    0.9170 H         1 <0>         0.0933
     55 H21        -6.2044   -6.3508   -0.8628 H         1 <0>         0.0977
     56 H22        -7.6612   -8.4349    0.0299 H         1 <0>         0.4011
     57 H23        -8.9344  -10.6239    0.0018 H         1 <0>         0.1451
     58 H24        -8.0371  -11.9904    0.7058 H         1 <0>         0.1593
     59 H25        -7.4810  -10.5878    2.5524 H         1 <0>         0.4258
     60 H26       -10.3395  -10.6301    1.8939 H         1 <0>         0.1652
     61 H27        -9.5003  -12.9585    1.9002 H         1 <0>         0.1582
     62 H28        -9.9191  -12.2134    5.7828 H         1 <0>         0.1017
     63 H29        -7.7121  -10.5534    4.4945 H         1 <0>         0.0667
     64 H30        -9.6405   -9.0650    3.7853 H         1 <0>         0.0960
     65 H31       -11.2858  -10.0378    5.2213 H         1 <0>         0.4107
     66 H32        -8.1919  -10.1890    6.8143 H         1 <0>         0.4058
     67 H33        -8.0379  -13.6259    6.1651 H         1 <0>         0.3945
     68 H34        -8.0824  -14.6739    4.3230 H         1 <0>         0.0770
     69 H35        -9.8354  -14.7844    4.6109 H         1 <0>         0.0759
     70 H36        -9.1957  -15.8763    2.5851 H         1 <0>         0.3996
     71 H37        -4.1997  -11.9407   -1.2654 H         1 <0>         0.1126
     72 H38        -2.1164  -11.0859   -2.2615 H         1 <0>         0.1226
     73 H39        -2.1481   -9.0163   -3.5952 H         1 <0>         0.1229
     74 H40        -4.2633   -7.8018   -3.9334 H         1 <0>         0.1217
     75 H41        -6.3481   -8.6612   -2.9442 H         1 <0>         0.1140
     76 H42        -5.9228  -12.6888   -0.9399 H         1 <0>         0.3816
     77 H43        -8.3116   -9.3228    1.9007 H         1 <0>         0.4245
@<TRIPOS>BOND
     1    1    2 1
     2    1   37 1
     3    1   38 1
     4    1   39 1
     5    2    3 1
     6    2   40 1
     7    2   41 1
     8    3    4 1
     9    3   42 1
    10    3   43 1
    11    4    5 1
    12    4   44 1
    13    4   45 1
    14    5    6 1
    15    5   46 1
    16    5   47 1
    17    6    7 1
    18    6   48 1
    19    6   49 1
    20    7    8 1
    21    7   50 1
    22    7   51 1
    23    8    9 1
    24    8   52 1
    25    8   53 1
    26    9   10 1
    27    9   54 1
    28    9   55 1
    29   10   11 2
    30   10   12 am
    31   12   13 1
    32   12   56 1
    33   13   14 1
    34   13   15 1
    35   13   28 1
    36   15   16 1
    37   15   57 1
    38   15   58 1
    39   16   17 1
    40   16   59 1
    41   16   77 1
    42   17   22 1
    43   17   18 1
    44   17   60 1
    45   18   19 2
    46   18   61 1
    47   19   20 1
    48   19   26 1
    49   20   21 1
    50   20   25 1
    51   20   62 1
    52   21   22 1
    53   21   24 1
    54   21   63 1
    55   22   23 1
    56   22   64 1
    57   23   65 1
    58   24   66 1
    59   25   67 1
    60   26   27 1
    61   26   68 1
    62   26   69 1
    63   27   70 1
    64   28   29 1
    65   28   30 1
    66   28   36 1
    67   30   35 ar
    68   30   31 ar
    69   31   32 ar
    70   31   71 1
    71   32   33 ar
    72   32   72 1
    73   33   34 ar
    74   33   73 1
    75   34   35 ar
    76   34   74 1
    77   35   75 1
    78   36   76 1
@<TRIPOS>MOLECULE
CHEMBL57497__21
   76    77     0     0     0
SMALL
USER_CHARGES

@<TRIPOS>ATOM
      1 C1         -0.0187    1.5258    0.0104 C.3       1 <0>        -0.1542
      2 C2          0.0021   -0.0041    0.0020 C.3       1 <0>        -0.1263
      3 C3          0.7182   -0.4975   -1.2568 C.3       1 <0>        -0.1209
      4 C4          0.7390   -2.0273   -1.2652 C.3       1 <0>        -0.1214
      5 C5          1.4551   -2.5207   -2.5240 C.3       1 <0>        -0.1198
      6 C6          1.4758   -4.0506   -2.5324 C.3       1 <0>        -0.1194
      7 C7          2.1920   -4.5440   -3.7912 C.3       1 <0>        -0.1196
      8 C8          2.2127   -6.0738   -3.7996 C.3       1 <0>        -0.1008
      9 C9          2.9289   -6.5673   -5.0584 C.3       1 <0>        -0.1387
     10 C10         2.9493   -8.0741   -5.0667 C.2       1 <0>         0.5122
     11 O1          2.4411   -8.6925   -4.1555 O.2       1 <0>        -0.5193
     12 N1          3.5323   -8.7345   -6.0867 N.am      1 <0>        -0.7141
     13 C11         3.5522  -10.1994   -6.0948 C.3       1 <0>         0.1255
     14 H1          2.6300  -10.5777   -5.6537 H         1 <0>         0.0950
     15 C12         3.6711  -10.6999   -7.5357 C.3       1 <0>         0.0436
     16 N2          2.5886  -10.1243   -8.3449 N.3       1 <0>        -0.6666
     17 C13         2.6710  -10.5839   -9.7377 C.3       1 <0>         0.1240
     18 C14         1.9920  -11.9163   -9.8629 C.2       1 <0>        -0.1522
     19 C15         0.8138  -12.0850  -10.3719 C.2       1 <0>        -0.1469
     20 C16        -0.0334  -10.9730  -10.9176 C.3       1 <0>         0.1178
     21 C17         0.4799   -9.6228  -10.4126 C.3       1 <0>         0.0875
     22 C18         1.9938   -9.5595  -10.6508 C.3       1 <0>         0.1293
     23 O2          2.2784   -9.8708  -12.0161 O.3       1 <0>        -0.5599
     24 O3         -0.1634   -8.5663  -11.1281 O.3       1 <0>        -0.5618
     25 O4         -1.3853  -11.1550  -10.4920 O.3       1 <0>        -0.5631
     26 C19         0.2587  -13.4852  -10.4199 C.3       1 <0>         0.1052
     27 O5          1.2080  -14.3935   -9.8580 O.3       1 <0>        -0.5677
     28 C20         4.7485  -10.6977   -5.2814 C.3       1 <0>         0.1387
     29 H2          5.6706  -10.3194   -5.7225 H         1 <0>         0.0651
     30 C21         4.6313  -10.2047   -3.8622 C.ar      1 <0>        -0.0660
     31 C22         3.8849  -10.9172   -2.9424 C.ar      1 <0>        -0.0721
     32 C23         3.7775  -10.4650   -1.6405 C.ar      1 <0>        -0.1158
     33 C24         4.4169   -9.3005   -1.2583 C.ar      1 <0>        -0.1132
     34 C25         5.1641   -8.5885   -2.1779 C.ar      1 <0>        -0.1186
     35 C26         5.2750   -9.0430   -3.4787 C.ar      1 <0>        -0.1105
     36 O6          4.7678  -12.1265   -5.2893 O.3       1 <0>        -0.5540
     37 H3          1.0039    1.9031    0.0027 H         1 <0>         0.0532
     38 H4         -0.5459    1.8868   -0.8726 H         1 <0>         0.0532
     39 H5         -0.5289    1.8773    0.9072 H         1 <0>         0.0533
     40 H6          0.5293   -0.3651    0.8851 H         1 <0>         0.0602
     41 H7         -1.0205   -0.3814    0.0098 H         1 <0>         0.0602
     42 H8          0.1910   -0.1364   -2.1398 H         1 <0>         0.0604
     43 H9          1.7408   -0.1202   -1.2645 H         1 <0>         0.0603
     44 H10         1.2661   -2.3884   -0.3821 H         1 <0>         0.0606
     45 H11        -0.2836   -2.4046   -1.2575 H         1 <0>         0.0606
     46 H12         0.9279   -2.1597   -3.4071 H         1 <0>         0.0602
     47 H13         2.4777   -2.1435   -2.5317 H         1 <0>         0.0602
     48 H14         2.0030   -4.4117   -1.6494 H         1 <0>         0.0613
     49 H15         0.4533   -4.4279   -2.5247 H         1 <0>         0.0611
     50 H16         1.6648   -4.1829   -4.6743 H         1 <0>         0.0605
     51 H17         3.2146   -4.1667   -3.7990 H         1 <0>         0.0605
     52 H18         2.7399   -6.4349   -2.9166 H         1 <0>         0.0694
     53 H19         1.1901   -6.4511   -3.7919 H         1 <0>         0.0668
     54 H20         2.4017   -6.2062   -5.9415 H         1 <0>         0.0897
     55 H21         3.9515   -6.1900   -5.0662 H         1 <0>         0.0881
     56 H22         3.9388   -8.2400   -6.8155 H         1 <0>         0.4032
     57 H23         4.6335  -10.3962   -7.9476 H         1 <0>         0.0846
     58 H24         3.5966  -11.7872   -7.5499 H         1 <0>         0.0540
     59 H25         1.6865  -10.3378   -7.9464 H         1 <0>         0.3489
     60 H26         3.7180  -10.6859  -10.0231 H         1 <0>         0.1034
     61 H27         2.5193  -12.7888   -9.5064 H         1 <0>         0.1273
     62 H28         0.0058  -10.9901  -12.0067 H         1 <0>         0.0799
     63 H29         0.2723   -9.5272   -9.3469 H         1 <0>         0.0759
     64 H30         2.3603   -8.5602  -10.4155 H         1 <0>         0.0832
     65 H31         1.8789   -9.2598  -12.6503 H         1 <0>         0.3886
     66 H32        -1.1258   -8.5570  -11.0345 H         1 <0>         0.3895
     67 H33        -1.7814  -11.9871  -10.7852 H         1 <0>         0.3812
     68 H34        -0.6681  -13.5284   -9.8478 H         1 <0>         0.0604
     69 H35         0.0598  -13.7619  -11.4552 H         1 <0>         0.0581
     70 H36         0.9167  -15.3156   -9.8560 H         1 <0>         0.3860
     71 H37         3.3853  -11.8270   -3.2410 H         1 <0>         0.1178
     72 H38         3.1937  -11.0213   -0.9221 H         1 <0>         0.1162
     73 H39         4.3323   -8.9468   -0.2414 H         1 <0>         0.1160
     74 H40         5.6633   -7.6785   -1.8794 H         1 <0>         0.1163
     75 H41         5.8618   -8.4887   -4.1962 H         1 <0>         0.1113
     76 H42         4.8418  -12.5140   -6.1722 H         1 <0>         0.3775
@<TRIPOS>BOND
     1    1    2 1
     2    1   37 1
     3    1   38 1
     4    1   39 1
     5    2    3 1
     6    2   40 1
     7    2   41 1
     8    3    4 1
     9    3   42 1
    10    3   43 1
    11    4    5 1
    12    4   44 1
    13    4   45 1
    14    5    6 1
    15    5   46 1
    16    5   47 1
    17    6    7 1
    18    6   48 1
    19    6   49 1
    20    7    8 1
    21    7   50 1
    22    7   51 1
    23    8    9 1
    24    8   52 1
    25    8   53 1
    26    9   10 1
    27    9   54 1
    28    9   55 1
    29   10   11 2
    30   10   12 am
    31   12   13 1
    32   12   56 1
    33   13   14 1
    34   13   15 1
    35   13   28 1
    36   15   16 1
    37   15   57 1
    38   15   58 1
    39   16   17 1
    40   16   59 1
    41   17   22 1
    42   17   18 1
    43   17   60 1
    44   18   19 2
    45   18   61 1
    46   19   20 1
    47   19   26 1
    48   20   21 1
    49   20   25 1
    50   20   62 1
    51   21   22 1
    52   21   24 1
    53   21   63 1
    54   22   23 1
    55   22   64 1
    56   23   65 1
    57   24   66 1
    58   25   67 1
    59   26   27 1
    60   26   68 1
    61   26   69 1
    62   27   70 1
    63   28   29 1
    64   28   30 1
    65   28   36 1
    66   30   35 ar
    67   30   31 ar
    68   31   32 ar
    69   31   71 1
    70   32   33 ar
    71   32   72 1
    72   33   34 ar
    73   33   73 1
    74   34   35 ar
    75   34   74 1
    76   35   75 1
    77   36   76 1
@<TRIPOS>MOLECULE
CHEMBL57497__22
   77    78     0     0     0
SMALL
USER_CHARGES

@<TRIPOS>ATOM
      1 C1         -0.0187    1.5258    0.0104 C.3       1 <0>        -0.1550
      2 C2          0.0021   -0.0041    0.0020 C.3       1 <0>        -0.1264
      3 C3         -1.4333   -0.5336    0.0129 C.3       1 <0>        -0.1211
      4 C4         -1.4126   -2.0635    0.0045 C.3       1 <0>        -0.1218
      5 C5         -2.8479   -2.5931    0.0153 C.3       1 <0>        -0.1201
      6 C6         -2.8272   -4.1229    0.0069 C.3       1 <0>        -0.1201
      7 C7         -4.2626   -4.6525    0.0178 C.3       1 <0>        -0.1198
      8 C8         -4.2418   -6.1823    0.0094 C.3       1 <0>        -0.1040
      9 C9         -5.6772   -6.7119    0.0202 C.3       1 <0>        -0.1393
     10 C10        -5.6568   -8.2187    0.0119 C.2       1 <0>         0.5147
     11 O1         -4.5984   -8.8108   -0.0014 O.2       1 <0>        -0.4905
     12 N1         -6.8147   -8.9084    0.0193 N.am      1 <0>        -0.7515
     13 C11        -6.7948  -10.3733    0.0112 C.3       1 <0>         0.0965
     14 H1         -5.9426  -10.7283    0.5907 H         1 <0>         0.1158
     15 C12        -8.0892  -10.9043    0.6304 C.3       1 <0>        -0.0185
     16 N2         -8.2633  -10.3282    1.9705 N.4       1 <0>        -0.4987
     17 C13        -9.5062  -10.8381    2.5650 C.3       1 <0>         0.0856
     18 C14        -9.3902  -12.3208    2.7649 C.2       1 <0>        -0.1779
     19 C15        -9.7903  -12.9429    3.8272 C.2       1 <0>        -0.0859
     20 C16       -10.4172  -12.2671    5.0114 C.3       1 <0>         0.1095
     21 C17       -10.8951  -10.8653    4.6263 C.3       1 <0>         0.0863
     22 C18        -9.7493  -10.1428    3.9063 C.3       1 <0>         0.0974
     23 O2         -8.5645  -10.2075    4.7026 O.3       1 <0>        -0.5473
     24 O3        -12.0231  -10.9650    3.7545 O.3       1 <0>        -0.5521
     25 O4         -9.4556  -12.1672    6.0637 O.3       1 <0>        -0.5394
     26 C19        -9.6161  -14.4389    3.8778 C.3       1 <0>         0.0972
     27 O5         -9.0069  -14.8888    2.6659 O.3       1 <0>        -0.5733
     28 C20        -6.6759  -10.8738   -1.4297 C.3       1 <0>         0.1478
     29 H2         -7.5282  -10.5188   -2.0091 H         1 <0>         0.1164
     30 C21        -5.4009  -10.3508   -2.0396 C.ar      1 <0>        -0.1156
     31 C22        -4.2136  -11.0330   -1.8505 C.ar      1 <0>        -0.0913
     32 C23        -3.0441  -10.5533   -2.4099 C.ar      1 <0>        -0.1052
     33 C24        -3.0620   -9.3915   -3.1588 C.ar      1 <0>        -0.1044
     34 C25        -4.2494   -8.7097   -3.3486 C.ar      1 <0>        -0.1122
     35 C26        -5.4197   -9.1918   -2.7928 C.ar      1 <0>        -0.1087
     36 O6         -6.6565  -12.3026   -1.4375 O.3       1 <0>        -0.5455
     37 H3          1.0039    1.9031    0.0027 H         1 <0>         0.0548
     38 H4         -0.5459    1.8868   -0.8726 H         1 <0>         0.0537
     39 H5         -0.5289    1.8773    0.9072 H         1 <0>         0.0534
     40 H6          0.5123   -0.3556   -0.8948 H         1 <0>         0.0607
     41 H7          0.5293   -0.3651    0.8851 H         1 <0>         0.0604
     42 H8         -1.9435   -0.1821    0.9097 H         1 <0>         0.0605
     43 H9         -1.9605   -0.1726   -0.8702 H         1 <0>         0.0608
     44 H10        -0.9024   -2.4150   -0.8923 H         1 <0>         0.0612
     45 H11        -0.8854   -2.4246    0.8875 H         1 <0>         0.0609
     46 H12        -3.3581   -2.2415    0.9121 H         1 <0>         0.0604
     47 H13        -3.3751   -2.2320   -0.8677 H         1 <0>         0.0610
     48 H14        -2.3170   -4.4744   -0.8899 H         1 <0>         0.0625
     49 H15        -2.3000   -4.4840    0.8900 H         1 <0>         0.0618
     50 H16        -4.7728   -4.3010    0.9146 H         1 <0>         0.0614
     51 H17        -4.7898   -4.2914   -0.8653 H         1 <0>         0.0627
     52 H18        -3.7316   -6.5338   -0.8874 H         1 <0>         0.0724
     53 H19        -3.7146   -6.5434    0.8924 H         1 <0>         0.0691
     54 H20        -6.1874   -6.3604    0.9170 H         1 <0>         0.0930
     55 H21        -6.2044   -6.3508   -0.8628 H         1 <0>         0.0969
     56 H22        -7.6612   -8.4349    0.0299 H         1 <0>         0.4004
     57 H23        -8.9344  -10.6239    0.0018 H         1 <0>         0.1408
     58 H24        -8.0371  -11.9904    0.7058 H         1 <0>         0.1558
     59 H25        -7.4810  -10.5878    2.5524 H         1 <0>         0.4362
     60 H26       -10.3395  -10.6301    1.8939 H         1 <0>         0.1618
     61 H27        -8.9456  -12.9054    1.9730 H         1 <0>         0.1496
     62 H28       -11.2669  -12.8565    5.3558 H         1 <0>         0.0792
     63 H29       -11.1701  -10.3123    5.5244 H         1 <0>         0.0944
     64 H30       -10.0230   -9.1017    3.7350 H         1 <0>         0.0943
     65 H31        -8.6489   -9.7849    5.5682 H         1 <0>         0.4105
     66 H32       -12.7796  -11.4264    4.1415 H         1 <0>         0.4003
     67 H33        -9.1152  -13.0197    6.3676 H         1 <0>         0.3901
     68 H34        -8.9807  -14.7024    4.7234 H         1 <0>         0.0702
     69 H35       -10.5901  -14.9145    3.9931 H         1 <0>         0.0718
     70 H36        -8.8641  -15.8445    2.6287 H         1 <0>         0.3979
     71 H37        -4.1997  -11.9407   -1.2654 H         1 <0>         0.1127
     72 H38        -2.1164  -11.0859   -2.2615 H         1 <0>         0.1224
     73 H39        -2.1481   -9.0163   -3.5952 H         1 <0>         0.1227
     74 H40        -4.2633   -7.8018   -3.9334 H         1 <0>         0.1213
     75 H41        -6.3481   -8.6612   -2.9442 H         1 <0>         0.1137
     76 H42        -5.9228  -12.6888   -0.9399 H         1 <0>         0.3817
     77 H43        -8.3116   -9.3228    1.9007 H         1 <0>         0.4229
@<TRIPOS>BOND
     1    1    2 1
     2    1   37 1
     3    1   38 1
     4    1   39 1
     5    2    3 1
     6    2   40 1
     7    2   41 1
     8    3    4 1
     9    3   42 1
    10    3   43 1
    11    4    5 1
    12    4   44 1
    13    4   45 1
    14    5    6 1
    15    5   46 1
    16    5   47 1
    17    6    7 1
    18    6   48 1
    19    6   49 1
    20    7    8 1
    21    7   50 1
    22    7   51 1
    23    8    9 1
    24    8   52 1
    25    8   53 1
    26    9   10 1
    27    9   54 1
    28    9   55 1
    29   10   11 2
    30   10   12 am
    31   12   13 1
    32   12   56 1
    33   13   14 1
    34   13   15 1
    35   13   28 1
    36   15   16 1
    37   15   57 1
    38   15   58 1
    39   16   17 1
    40   16   59 1
    41   16   77 1
    42   17   22 1
    43   17   18 1
    44   17   60 1
    45   18   19 2
    46   18   61 1
    47   19   20 1
    48   19   26 1
    49   20   21 1
    50   20   25 1
    51   20   62 1
    52   21   22 1
    53   21   24 1
    54   21   63 1
    55   22   23 1
    56   22   64 1
    57   23   65 1
    58   24   66 1
    59   25   67 1
    60   26   27 1
    61   26   68 1
    62   26   69 1
    63   27   70 1
    64   28   29 1
    65   28   30 1
    66   28   36 1
    67   30   35 ar
    68   30   31 ar
    69   31   32 ar
    70   31   71 1
    71   32   33 ar
    72   32   72 1
    73   33   34 ar
    74   33   73 1
    75   34   35 ar
    76   34   74 1
    77   35   75 1
    78   36   76 1
@<TRIPOS>MOLECULE
CHEMBL57497__23
   76    77     0     0     0
SMALL
USER_CHARGES

@<TRIPOS>ATOM
      1 C1         -0.0187    1.5258    0.0104 C.3       1 <0>        -0.1541
      2 C2          0.0021   -0.0041    0.0020 C.3       1 <0>        -0.1263
      3 C3          0.7182   -0.4975   -1.2568 C.3       1 <0>        -0.1209
      4 C4          0.7390   -2.0273   -1.2652 C.3       1 <0>        -0.1215
      5 C5          1.4551   -2.5207   -2.5240 C.3       1 <0>        -0.1197
      6 C6          1.4758   -4.0506   -2.5324 C.3       1 <0>        -0.1195
      7 C7          2.1920   -4.5440   -3.7912 C.3       1 <0>        -0.1194
      8 C8          2.2127   -6.0738   -3.7996 C.3       1 <0>        -0.1006
      9 C9          2.9289   -6.5673   -5.0584 C.3       1 <0>        -0.1381
     10 C10         2.9493   -8.0741   -5.0667 C.2       1 <0>         0.5127
     11 O1          2.4411   -8.6925   -4.1555 O.2       1 <0>        -0.5209
     12 N1          3.5323   -8.7345   -6.0867 N.am      1 <0>        -0.7117
     13 C11         3.5522  -10.1994   -6.0948 C.3       1 <0>         0.1272
     14 H1          2.6300  -10.5777   -5.6537 H         1 <0>         0.0940
     15 C12         3.6711  -10.6999   -7.5357 C.3       1 <0>         0.0396
     16 N2          2.5886  -10.1243   -8.3449 N.3       1 <0>        -0.6616
     17 C13         2.6710  -10.5839   -9.7377 C.3       1 <0>         0.1305
     18 C14         1.9920  -11.9163   -9.8629 C.2       1 <0>        -0.1267
     19 C15         1.2078  -12.2418  -10.8400 C.2       1 <0>        -0.1643
     20 C16         0.8605  -11.3288  -11.9792 C.3       1 <0>         0.1275
     21 C17         1.8595  -10.1718  -12.0509 C.3       1 <0>         0.0775
     22 C18         1.9938   -9.5595  -10.6508 C.3       1 <0>         0.1329
     23 O2          0.6981   -9.2419  -10.1386 O.3       1 <0>        -0.5291
     24 O3          3.1301  -10.6605  -12.4853 O.3       1 <0>        -0.5478
     25 O4         -0.4554  -10.8070  -11.7838 O.3       1 <0>        -0.5432
     26 C19         0.6067  -13.6237  -10.8334 C.3       1 <0>         0.1095
     27 O5          1.0554  -14.3328   -9.6767 O.3       1 <0>        -0.5690
     28 C20         4.7485  -10.6977   -5.2814 C.3       1 <0>         0.1381
     29 H2          5.6706  -10.3194   -5.7225 H         1 <0>         0.0640
     30 C21         4.6313  -10.2047   -3.8622 C.ar      1 <0>        -0.0648
     31 C22         3.8849  -10.9172   -2.9424 C.ar      1 <0>        -0.0721
     32 C23         3.7775  -10.4650   -1.6405 C.ar      1 <0>        -0.1158
     33 C24         4.4169   -9.3005   -1.2583 C.ar      1 <0>        -0.1138
     34 C25         5.1641   -8.5885   -2.1779 C.ar      1 <0>        -0.1188
     35 C26         5.2750   -9.0430   -3.4787 C.ar      1 <0>        -0.1107
     36 O6          4.7678  -12.1265   -5.2893 O.3       1 <0>        -0.5546
     37 H3          1.0039    1.9031    0.0027 H         1 <0>         0.0532
     38 H4         -0.5459    1.8868   -0.8726 H         1 <0>         0.0532
     39 H5         -0.5289    1.8773    0.9072 H         1 <0>         0.0532
     40 H6          0.5293   -0.3651    0.8851 H         1 <0>         0.0602
     41 H7         -1.0205   -0.3814    0.0098 H         1 <0>         0.0603
     42 H8          0.1910   -0.1364   -2.1398 H         1 <0>         0.0603
     43 H9          1.7408   -0.1202   -1.2645 H         1 <0>         0.0603
     44 H10         1.2661   -2.3884   -0.3821 H         1 <0>         0.0606
     45 H11        -0.2836   -2.4046   -1.2575 H         1 <0>         0.0606
     46 H12         0.9279   -2.1597   -3.4071 H         1 <0>         0.0601
     47 H13         2.4777   -2.1435   -2.5317 H         1 <0>         0.0600
     48 H14         2.0030   -4.4117   -1.6494 H         1 <0>         0.0612
     49 H15         0.4533   -4.4279   -2.5247 H         1 <0>         0.0612
     50 H16         1.6648   -4.1829   -4.6743 H         1 <0>         0.0604
     51 H17         3.2146   -4.1667   -3.7990 H         1 <0>         0.0602
     52 H18         2.7399   -6.4349   -2.9166 H         1 <0>         0.0691
     53 H19         1.1901   -6.4511   -3.7919 H         1 <0>         0.0670
     54 H20         2.4017   -6.2062   -5.9415 H         1 <0>         0.0896
     55 H21         3.9515   -6.1900   -5.0662 H         1 <0>         0.0871
     56 H22         3.9388   -8.2400   -6.8155 H         1 <0>         0.4026
     57 H23         4.6335  -10.3962   -7.9476 H         1 <0>         0.0800
     58 H24         3.5966  -11.7872   -7.5499 H         1 <0>         0.0481
     59 H25         1.6865  -10.3378   -7.9464 H         1 <0>         0.3540
     60 H26         3.7180  -10.6859  -10.0231 H         1 <0>         0.1042
     61 H27         2.1689  -12.6494   -9.0898 H         1 <0>         0.1213
     62 H28         0.8896  -11.8896  -12.9134 H         1 <0>         0.0577
     63 H29         1.4961   -9.4166  -12.7478 H         1 <0>         0.0724
     64 H30         2.6021   -8.6564  -10.7027 H         1 <0>         0.0689
     65 H31         0.2123   -8.5966  -10.6703 H         1 <0>         0.3772
     66 H32         3.1141  -11.0760  -13.3583 H         1 <0>         0.3828
     67 H33        -1.1443  -11.4841  -11.7392 H         1 <0>         0.3789
     68 H34        -0.4804  -13.5469  -10.8134 H         1 <0>         0.0531
     69 H35         0.9167  -14.1591  -11.7308 H         1 <0>         0.0543
     70 H36         0.7071  -15.2322   -9.6070 H         1 <0>         0.3844
     71 H37         3.3853  -11.8270   -3.2410 H         1 <0>         0.1178
     72 H38         3.1937  -11.0213   -0.9221 H         1 <0>         0.1160
     73 H39         4.3323   -8.9468   -0.2414 H         1 <0>         0.1157
     74 H40         5.6633   -7.6785   -1.8794 H         1 <0>         0.1160
     75 H41         5.8618   -8.4887   -4.1962 H         1 <0>         0.1110
     76 H42         4.8418  -12.5140   -6.1722 H         1 <0>         0.3773
@<TRIPOS>BOND
     1    1    2 1
     2    1   37 1
     3    1   38 1
     4    1   39 1
     5    2    3 1
     6    2   40 1
     7    2   41 1
     8    3    4 1
     9    3   42 1
    10    3   43 1
    11    4    5 1
    12    4   44 1
    13    4   45 1
    14    5    6 1
    15    5   46 1
    16    5   47 1
    17    6    7 1
    18    6   48 1
    19    6   49 1
    20    7    8 1
    21    7   50 1
    22    7   51 1
    23    8    9 1
    24    8   52 1
    25    8   53 1
    26    9   10 1
    27    9   54 1
    28    9   55 1
    29   10   11 2
    30   10   12 am
    31   12   13 1
    32   12   56 1
    33   13   14 1
    34   13   15 1
    35   13   28 1
    36   15   16 1
    37   15   57 1
    38   15   58 1
    39   16   17 1
    40   16   59 1
    41   17   22 1
    42   17   18 1
    43   17   60 1
    44   18   19 2
    45   18   61 1
    46   19   20 1
    47   19   26 1
    48   20   21 1
    49   20   25 1
    50   20   62 1
    51   21   22 1
    52   21   24 1
    53   21   63 1
    54   22   23 1
    55   22   64 1
    56   23   65 1
    57   24   66 1
    58   25   67 1
    59   26   27 1
    60   26   68 1
    61   26   69 1
    62   27   70 1
    63   28   29 1
    64   28   30 1
    65   28   36 1
    66   30   35 ar
    67   30   31 ar
    68   31   32 ar
    69   31   71 1
    70   32   33 ar
    71   32   72 1
    72   33   34 ar
    73   33   73 1
    74   34   35 ar
    75   34   74 1
    76   35   75 1
    77   36   76 1
@<TRIPOS>MOLECULE
CHEMBL57497__24
   77    78     0     0     0
SMALL
USER_CHARGES

@<TRIPOS>ATOM
      1 C1         -0.0187    1.5258    0.0104 C.3       1 <0>        -0.1550
      2 C2          0.0021   -0.0041    0.0020 C.3       1 <0>        -0.1263
      3 C3         -1.4333   -0.5336    0.0129 C.3       1 <0>        -0.1211
      4 C4         -1.4126   -2.0635    0.0045 C.3       1 <0>        -0.1217
      5 C5         -2.8479   -2.5931    0.0153 C.3       1 <0>        -0.1202
      6 C6         -2.8272   -4.1229    0.0069 C.3       1 <0>        -0.1199
      7 C7         -4.2626   -4.6525    0.0178 C.3       1 <0>        -0.1201
      8 C8         -4.2418   -6.1823    0.0094 C.3       1 <0>        -0.1036
      9 C9         -5.6772   -6.7119    0.0202 C.3       1 <0>        -0.1399
     10 C10        -5.6568   -8.2187    0.0119 C.2       1 <0>         0.5150
     11 O1         -4.5984   -8.8108   -0.0014 O.2       1 <0>        -0.4912
     12 N1         -6.8147   -8.9084    0.0193 N.am      1 <0>        -0.7522
     13 C11        -6.7948  -10.3733    0.0112 C.3       1 <0>         0.0957
     14 H1         -5.9426  -10.7283    0.5907 H         1 <0>         0.1163
     15 C12        -8.0892  -10.9043    0.6304 C.3       1 <0>        -0.0182
     16 N2         -8.2633  -10.3282    1.9705 N.4       1 <0>        -0.5003
     17 C13        -9.5062  -10.8381    2.5650 C.3       1 <0>         0.0810
     18 C14        -9.3902  -12.3208    2.7649 C.2       1 <0>        -0.2035
     19 C15        -9.7903  -12.9429    3.8272 C.2       1 <0>        -0.0815
     20 C16       -10.4172  -12.2671    5.0114 C.3       1 <0>         0.0984
     21 C17       -10.8951  -10.8653    4.6263 C.3       1 <0>         0.0951
     22 C18        -9.7493  -10.1428    3.9063 C.3       1 <0>         0.0981
     23 O2        -10.1081   -8.7779    3.6818 O.3       1 <0>        -0.5580
     24 O3        -11.2556  -10.1403    5.8038 O.3       1 <0>        -0.5543
     25 O4        -11.5311  -13.0399    5.4630 O.3       1 <0>        -0.5490
     26 C19        -9.6161  -14.4389    3.8778 C.3       1 <0>         0.0928
     27 O5         -9.0069  -14.8888    2.6659 O.3       1 <0>        -0.5723
     28 C20        -6.6759  -10.8738   -1.4297 C.3       1 <0>         0.1479
     29 H2         -7.5282  -10.5188   -2.0091 H         1 <0>         0.1170
     30 C21        -5.4009  -10.3508   -2.0396 C.ar      1 <0>        -0.1162
     31 C22        -4.2136  -11.0330   -1.8505 C.ar      1 <0>        -0.0914
     32 C23        -3.0441  -10.5533   -2.4099 C.ar      1 <0>        -0.1053
     33 C24        -3.0620   -9.3915   -3.1588 C.ar      1 <0>        -0.1041
     34 C25        -4.2494   -8.7097   -3.3486 C.ar      1 <0>        -0.1119
     35 C26        -5.4197   -9.1918   -2.7928 C.ar      1 <0>        -0.1084
     36 O6         -6.6565  -12.3026   -1.4375 O.3       1 <0>        -0.5453
     37 H3          1.0039    1.9031    0.0027 H         1 <0>         0.0548
     38 H4         -0.5459    1.8868   -0.8726 H         1 <0>         0.0537
     39 H5         -0.5289    1.8773    0.9072 H         1 <0>         0.0535
     40 H6          0.5123   -0.3556   -0.8948 H         1 <0>         0.0606
     41 H7          0.5293   -0.3651    0.8851 H         1 <0>         0.0604
     42 H8         -1.9435   -0.1821    0.9097 H         1 <0>         0.0605
     43 H9         -1.9605   -0.1726   -0.8702 H         1 <0>         0.0609
     44 H10        -0.9024   -2.4150   -0.8923 H         1 <0>         0.0612
     45 H11        -0.8854   -2.4246    0.8875 H         1 <0>         0.0608
     46 H12        -3.3581   -2.2415    0.9121 H         1 <0>         0.0605
     47 H13        -3.3751   -2.2320   -0.8677 H         1 <0>         0.0611
     48 H14        -2.3170   -4.4744   -0.8899 H         1 <0>         0.0625
     49 H15        -2.3000   -4.4840    0.8900 H         1 <0>         0.0616
     50 H16        -4.7728   -4.3010    0.9146 H         1 <0>         0.0616
     51 H17        -4.7898   -4.2914   -0.8653 H         1 <0>         0.0630
     52 H18        -3.7316   -6.5338   -0.8874 H         1 <0>         0.0723
     53 H19        -3.7146   -6.5434    0.8924 H         1 <0>         0.0688
     54 H20        -6.1874   -6.3604    0.9170 H         1 <0>         0.0938
     55 H21        -6.2044   -6.3508   -0.8628 H         1 <0>         0.0974
     56 H22        -7.6612   -8.4349    0.0299 H         1 <0>         0.4020
     57 H23        -8.9344  -10.6239    0.0018 H         1 <0>         0.1432
     58 H24        -8.0371  -11.9904    0.7058 H         1 <0>         0.1578
     59 H25        -7.4810  -10.5878    2.5524 H         1 <0>         0.4278
     60 H26       -10.3395  -10.6301    1.8939 H         1 <0>         0.1592
     61 H27        -8.9456  -12.9054    1.9730 H         1 <0>         0.1612
     62 H28        -9.6837  -12.1909    5.8141 H         1 <0>         0.0939
     63 H29       -11.7555  -10.9414    3.9613 H         1 <0>         0.0884
     64 H30        -8.8456  -10.1921    4.5137 H         1 <0>         0.0902
     65 H31       -10.2767   -8.2772    4.4917 H         1 <0>         0.4167
     66 H32       -11.9650  -10.5510    6.3168 H         1 <0>         0.4075
     67 H33       -11.3016  -13.9391    5.7348 H         1 <0>         0.3931
     68 H34        -8.9807  -14.7024    4.7234 H         1 <0>         0.0764
     69 H35       -10.5901  -14.9145    3.9931 H         1 <0>         0.0792
     70 H36        -8.8641  -15.8445    2.6287 H         1 <0>         0.4007
     71 H37        -4.1997  -11.9407   -1.2654 H         1 <0>         0.1126
     72 H38        -2.1164  -11.0859   -2.2615 H         1 <0>         0.1225
     73 H39        -2.1481   -9.0163   -3.5952 H         1 <0>         0.1228
     74 H40        -4.2633   -7.8018   -3.9334 H         1 <0>         0.1216
     75 H41        -6.3481   -8.6612   -2.9442 H         1 <0>         0.1139
     76 H42        -5.9228  -12.6888   -0.9399 H         1 <0>         0.3815
     77 H43        -8.3116   -9.3228    1.9007 H         1 <0>         0.4325
@<TRIPOS>BOND
     1    1    2 1
     2    1   37 1
     3    1   38 1
     4    1   39 1
     5    2    3 1
     6    2   40 1
     7    2   41 1
     8    3    4 1
     9    3   42 1
    10    3   43 1
    11    4    5 1
    12    4   44 1
    13    4   45 1
    14    5    6 1
    15    5   46 1
    16    5   47 1
    17    6    7 1
    18    6   48 1
    19    6   49 1
    20    7    8 1
    21    7   50 1
    22    7   51 1
    23    8    9 1
    24    8   52 1
    25    8   53 1
    26    9   10 1
    27    9   54 1
    28    9   55 1
    29   10   11 2
    30   10   12 am
    31   12   13 1
    32   12   56 1
    33   13   14 1
    34   13   15 1
    35   13   28 1
    36   15   16 1
    37   15   57 1
    38   15   58 1
    39   16   17 1
    40   16   59 1
    41   16   77 1
    42   17   22 1
    43   17   18 1
    44   17   60 1
    45   18   19 2
    46   18   61 1
    47   19   20 1
    48   19   26 1
    49   20   21 1
    50   20   25 1
    51   20   62 1
    52   21   22 1
    53   21   24 1
    54   21   63 1
    55   22   23 1
    56   22   64 1
    57   23   65 1
    58   24   66 1
    59   25   67 1
    60   26   27 1
    61   26   68 1
    62   26   69 1
    63   27   70 1
    64   28   29 1
    65   28   30 1
    66   28   36 1
    67   30   35 ar
    68   30   31 ar
    69   31   32 ar
    70   31   71 1
    71   32   33 ar
    72   32   72 1
    73   33   34 ar
    74   33   73 1
    75   34   35 ar
    76   34   74 1
    77   35   75 1
    78   36   76 1
@<TRIPOS>MOLECULE
CHEMBL57497__25
   76    77     0     0     0
SMALL
USER_CHARGES

@<TRIPOS>ATOM
      1 C1         -0.0187    1.5258    0.0104 C.3       1 <0>        -0.1541
      2 C2          0.0021   -0.0041    0.0020 C.3       1 <0>        -0.1263
      3 C3          0.7182   -0.4975   -1.2568 C.3       1 <0>        -0.1209
      4 C4          0.7390   -2.0273   -1.2652 C.3       1 <0>        -0.1214
      5 C5          1.4551   -2.5207   -2.5240 C.3       1 <0>        -0.1199
      6 C6          1.4758   -4.0506   -2.5324 C.3       1 <0>        -0.1193
      7 C7          2.1920   -4.5440   -3.7912 C.3       1 <0>        -0.1196
      8 C8          2.2127   -6.0738   -3.7996 C.3       1 <0>        -0.1004
      9 C9          2.9289   -6.5673   -5.0584 C.3       1 <0>        -0.1385
     10 C10         2.9493   -8.0741   -5.0667 C.2       1 <0>         0.5125
     11 O1          2.4411   -8.6925   -4.1555 O.2       1 <0>        -0.5217
     12 N1          3.5323   -8.7345   -6.0867 N.am      1 <0>        -0.7122
     13 C11         3.5522  -10.1994   -6.0948 C.3       1 <0>         0.1265
     14 H1          2.6300  -10.5777   -5.6537 H         1 <0>         0.0942
     15 C12         3.6711  -10.6999   -7.5357 C.3       1 <0>         0.0431
     16 N2          2.5886  -10.1243   -8.3449 N.3       1 <0>        -0.6599
     17 C13         2.6710  -10.5839   -9.7377 C.3       1 <0>         0.1245
     18 C14         1.9920  -11.9163   -9.8629 C.2       1 <0>        -0.1525
     19 C15         1.2078  -12.2418  -10.8400 C.2       1 <0>        -0.1589
     20 C16         0.8605  -11.3288  -11.9792 C.3       1 <0>         0.1155
     21 C17         1.8595  -10.1718  -12.0509 C.3       1 <0>         0.0856
     22 C18         1.9938   -9.5595  -10.6508 C.3       1 <0>         0.1371
     23 O2          2.7912   -8.3756  -10.7189 O.3       1 <0>        -0.5435
     24 O3          1.3831   -9.1817  -12.9646 O.3       1 <0>        -0.5601
     25 O4          0.8986  -12.0640  -13.2040 O.3       1 <0>        -0.5593
     26 C19         0.6067  -13.6237  -10.8334 C.3       1 <0>         0.1056
     27 O5          1.0554  -14.3328   -9.6767 O.3       1 <0>        -0.5684
     28 C20         4.7485  -10.6977   -5.2814 C.3       1 <0>         0.1380
     29 H2          5.6706  -10.3194   -5.7225 H         1 <0>         0.0648
     30 C21         4.6313  -10.2047   -3.8622 C.ar      1 <0>        -0.0652
     31 C22         3.8849  -10.9172   -2.9424 C.ar      1 <0>        -0.0722
     32 C23         3.7775  -10.4650   -1.6405 C.ar      1 <0>        -0.1160
     33 C24         4.4169   -9.3005   -1.2583 C.ar      1 <0>        -0.1135
     34 C25         5.1641   -8.5885   -2.1779 C.ar      1 <0>        -0.1185
     35 C26         5.2750   -9.0430   -3.4787 C.ar      1 <0>        -0.1104
     36 O6          4.7678  -12.1265   -5.2893 O.3       1 <0>        -0.5544
     37 H3          1.0039    1.9031    0.0027 H         1 <0>         0.0532
     38 H4         -0.5459    1.8868   -0.8726 H         1 <0>         0.0532
     39 H5         -0.5289    1.8773    0.9072 H         1 <0>         0.0532
     40 H6          0.5293   -0.3651    0.8851 H         1 <0>         0.0602
     41 H7         -1.0205   -0.3814    0.0098 H         1 <0>         0.0602
     42 H8          0.1910   -0.1364   -2.1398 H         1 <0>         0.0603
     43 H9          1.7408   -0.1202   -1.2645 H         1 <0>         0.0604
     44 H10         1.2661   -2.3884   -0.3821 H         1 <0>         0.0606
     45 H11        -0.2836   -2.4046   -1.2575 H         1 <0>         0.0605
     46 H12         0.9279   -2.1597   -3.4071 H         1 <0>         0.0602
     47 H13         2.4777   -2.1435   -2.5317 H         1 <0>         0.0602
     48 H14         2.0030   -4.4117   -1.6494 H         1 <0>         0.0612
     49 H15         0.4533   -4.4279   -2.5247 H         1 <0>         0.0609
     50 H16         1.6648   -4.1829   -4.6743 H         1 <0>         0.0605
     51 H17         3.2146   -4.1667   -3.7990 H         1 <0>         0.0605
     52 H18         2.7399   -6.4349   -2.9166 H         1 <0>         0.0691
     53 H19         1.1901   -6.4511   -3.7919 H         1 <0>         0.0665
     54 H20         2.4017   -6.2062   -5.9415 H         1 <0>         0.0899
     55 H21         3.9515   -6.1900   -5.0662 H         1 <0>         0.0877
     56 H22         3.9388   -8.2400   -6.8155 H         1 <0>         0.4050
     57 H23         4.6335  -10.3962   -7.9476 H         1 <0>         0.0833
     58 H24         3.5966  -11.7872   -7.5499 H         1 <0>         0.0502
     59 H25         1.6865  -10.3378   -7.9464 H         1 <0>         0.3465
     60 H26         3.7180  -10.6859  -10.0231 H         1 <0>         0.1011
     61 H27         2.1689  -12.6494   -9.0898 H         1 <0>         0.1342
     62 H28        -0.1432  -10.9308  -11.8302 H         1 <0>         0.0775
     63 H29         2.8287  -10.5445  -12.3823 H         1 <0>         0.0747
     64 H30         1.0055   -9.3172  -10.2601 H         1 <0>         0.0656
     65 H31         2.4197   -7.6830  -11.2823 H         1 <0>         0.3855
     66 H32         1.2596   -9.5063  -13.8670 H         1 <0>         0.3917
     67 H33         0.2821  -12.8083  -13.2353 H         1 <0>         0.3825
     68 H34        -0.4804  -13.5469  -10.8134 H         1 <0>         0.0589
     69 H35         0.9167  -14.1591  -11.7308 H         1 <0>         0.0626
     70 H36         0.7071  -15.2322   -9.6070 H         1 <0>         0.3875
     71 H37         3.3853  -11.8270   -3.2410 H         1 <0>         0.1177
     72 H38         3.1937  -11.0213   -0.9221 H         1 <0>         0.1160
     73 H39         4.3323   -8.9468   -0.2414 H         1 <0>         0.1158
     74 H40         5.6633   -7.6785   -1.8794 H         1 <0>         0.1162
     75 H41         5.8618   -8.4887   -4.1962 H         1 <0>         0.1113
     76 H42         4.8418  -12.5140   -6.1722 H         1 <0>         0.3771
@<TRIPOS>BOND
     1    1    2 1
     2    1   37 1
     3    1   38 1
     4    1   39 1
     5    2    3 1
     6    2   40 1
     7    2   41 1
     8    3    4 1
     9    3   42 1
    10    3   43 1
    11    4    5 1
    12    4   44 1
    13    4   45 1
    14    5    6 1
    15    5   46 1
    16    5   47 1
    17    6    7 1
    18    6   48 1
    19    6   49 1
    20    7    8 1
    21    7   50 1
    22    7   51 1
    23    8    9 1
    24    8   52 1
    25    8   53 1
    26    9   10 1
    27    9   54 1
    28    9   55 1
    29   10   11 2
    30   10   12 am
    31   12   13 1
    32   12   56 1
    33   13   14 1
    34   13   15 1
    35   13   28 1
    36   15   16 1
    37   15   57 1
    38   15   58 1
    39   16   17 1
    40   16   59 1
    41   17   22 1
    42   17   18 1
    43   17   60 1
    44   18   19 2
    45   18   61 1
    46   19   20 1
    47   19   26 1
    48   20   21 1
    49   20   25 1
    50   20   62 1
    51   21   22 1
    52   21   24 1
    53   21   63 1
    54   22   23 1
    55   22   64 1
    56   23   65 1
    57   24   66 1
    58   25   67 1
    59   26   27 1
    60   26   68 1
    61   26   69 1
    62   27   70 1
    63   28   29 1
    64   28   30 1
    65   28   36 1
    66   30   35 ar
    67   30   31 ar
    68   31   32 ar
    69   31   71 1
    70   32   33 ar
    71   32   72 1
    72   33   34 ar
    73   33   73 1
    74   34   35 ar
    75   34   74 1
    76   35   75 1
    77   36   76 1
@<TRIPOS>MOLECULE
CHEMBL57497__26
   77    78     0     0     0
SMALL
USER_CHARGES

@<TRIPOS>ATOM
      1 C1         -0.0187    1.5258    0.0104 C.3       1 <0>        -0.1550
      2 C2          0.0021   -0.0041    0.0020 C.3       1 <0>        -0.1264
      3 C3         -1.4333   -0.5336    0.0129 C.3       1 <0>        -0.1211
      4 C4         -1.4126   -2.0635    0.0045 C.3       1 <0>        -0.1218
      5 C5         -2.8479   -2.5931    0.0153 C.3       1 <0>        -0.1201
      6 C6         -2.8272   -4.1229    0.0069 C.3       1 <0>        -0.1201
      7 C7         -4.2626   -4.6525    0.0178 C.3       1 <0>        -0.1199
      8 C8         -4.2418   -6.1823    0.0094 C.3       1 <0>        -0.1040
      9 C9         -5.6772   -6.7119    0.0202 C.3       1 <0>        -0.1394
     10 C10        -5.6568   -8.2187    0.0119 C.2       1 <0>         0.5147
     11 O1         -4.5984   -8.8108   -0.0014 O.2       1 <0>        -0.4899
     12 N1         -6.8147   -8.9084    0.0193 N.am      1 <0>        -0.7520
     13 C11        -6.7948  -10.3733    0.0112 C.3       1 <0>         0.0961
     14 H1         -5.9426  -10.7283    0.5907 H         1 <0>         0.1164
     15 C12        -8.0892  -10.9043    0.6304 C.3       1 <0>        -0.0189
     16 N2         -8.2633  -10.3282    1.9705 N.4       1 <0>        -0.4968
     17 C13        -9.5062  -10.8381    2.5650 C.3       1 <0>         0.0828
     18 C14        -9.3902  -12.3208    2.7649 C.2       1 <0>        -0.2035
     19 C15        -9.7903  -12.9429    3.8272 C.2       1 <0>        -0.0735
     20 C16       -10.4163  -12.2669    5.0118 C.3       1 <0>         0.1040
     21 C17       -10.8945  -10.8652    4.6269 C.3       1 <0>         0.0925
     22 C18        -9.7493  -10.1428    3.9063 C.3       1 <0>         0.0956
     23 O2         -8.5645  -10.2075    4.7026 O.3       1 <0>        -0.5661
     24 O3        -11.2541  -10.1401    5.8046 O.3       1 <0>        -0.5548
     25 O4        -11.5299  -13.0397    5.4643 O.3       1 <0>        -0.5539
     26 C19        -9.6161  -14.4389    3.8778 C.3       1 <0>         0.0930
     27 O5         -9.0069  -14.8888    2.6659 O.3       1 <0>        -0.5722
     28 C20        -6.6759  -10.8738   -1.4297 C.3       1 <0>         0.1480
     29 H2         -7.5282  -10.5188   -2.0091 H         1 <0>         0.1166
     30 C21        -5.4009  -10.3508   -2.0396 C.ar      1 <0>        -0.1162
     31 C22        -4.2136  -11.0330   -1.8505 C.ar      1 <0>        -0.0913
     32 C23        -3.0441  -10.5533   -2.4099 C.ar      1 <0>        -0.1051
     33 C24        -3.0620   -9.3915   -3.1588 C.ar      1 <0>        -0.1041
     34 C25        -4.2494   -8.7097   -3.3486 C.ar      1 <0>        -0.1121
     35 C26        -5.4197   -9.1918   -2.7928 C.ar      1 <0>        -0.1087
     36 O6         -6.6565  -12.3026   -1.4375 O.3       1 <0>        -0.5455
     37 H3          1.0039    1.9031    0.0027 H         1 <0>         0.0548
     38 H4         -0.5459    1.8868   -0.8726 H         1 <0>         0.0537
     39 H5         -0.5289    1.8773    0.9072 H         1 <0>         0.0535
     40 H6          0.5123   -0.3556   -0.8948 H         1 <0>         0.0607
     41 H7          0.5293   -0.3651    0.8851 H         1 <0>         0.0604
     42 H8         -1.9435   -0.1821    0.9097 H         1 <0>         0.0605
     43 H9         -1.9605   -0.1726   -0.8702 H         1 <0>         0.0608
     44 H10        -0.9024   -2.4150   -0.8923 H         1 <0>         0.0612
     45 H11        -0.8854   -2.4246    0.8875 H         1 <0>         0.0609
     46 H12        -3.3581   -2.2415    0.9121 H         1 <0>         0.0605
     47 H13        -3.3751   -2.2320   -0.8677 H         1 <0>         0.0610
     48 H14        -2.3170   -4.4744   -0.8899 H         1 <0>         0.0625
     49 H15        -2.3000   -4.4840    0.8900 H         1 <0>         0.0618
     50 H16        -4.7728   -4.3010    0.9146 H         1 <0>         0.0614
     51 H17        -4.7898   -4.2914   -0.8653 H         1 <0>         0.0628
     52 H18        -3.7316   -6.5338   -0.8874 H         1 <0>         0.0724
     53 H19        -3.7146   -6.5434    0.8924 H         1 <0>         0.0691
     54 H20        -6.1874   -6.3604    0.9170 H         1 <0>         0.0932
     55 H21        -6.2044   -6.3508   -0.8628 H         1 <0>         0.0970
     56 H22        -7.6612   -8.4349    0.0299 H         1 <0>         0.4004
     57 H23        -8.9344  -10.6239    0.0018 H         1 <0>         0.1420
     58 H24        -8.0371  -11.9904    0.7058 H         1 <0>         0.1575
     59 H25        -7.4810  -10.5878    2.5524 H         1 <0>         0.4379
     60 H26       -10.3395  -10.6301    1.8939 H         1 <0>         0.1603
     61 H27        -8.9456  -12.9054    1.9730 H         1 <0>         0.1548
     62 H28        -9.6823  -12.1907    5.8139 H         1 <0>         0.0957
     63 H29       -11.7553  -10.9413    3.9626 H         1 <0>         0.0875
     64 H30       -10.0230   -9.1017    3.7350 H         1 <0>         0.1032
     65 H31        -8.6489   -9.7849    5.5682 H         1 <0>         0.4159
     66 H32       -11.9631  -10.5508    6.3182 H         1 <0>         0.4063
     67 H33       -11.3003  -13.9389    5.7360 H         1 <0>         0.3922
     68 H34        -8.9807  -14.7024    4.7234 H         1 <0>         0.0747
     69 H35       -10.5901  -14.9145    3.9931 H         1 <0>         0.0770
     70 H36        -8.8641  -15.8445    2.6287 H         1 <0>         0.3993
     71 H37        -4.1997  -11.9407   -1.2654 H         1 <0>         0.1128
     72 H38        -2.1164  -11.0859   -2.2615 H         1 <0>         0.1226
     73 H39        -2.1481   -9.0163   -3.5952 H         1 <0>         0.1228
     74 H40        -4.2633   -7.8018   -3.9334 H         1 <0>         0.1215
     75 H41        -6.3481   -8.6612   -2.9442 H         1 <0>         0.1137
     76 H42        -5.9228  -12.6888   -0.9399 H         1 <0>         0.3820
     77 H43        -8.3116   -9.3228    1.9007 H         1 <0>         0.4244
@<TRIPOS>BOND
     1    1    2 1
     2    1   37 1
     3    1   38 1
     4    1   39 1
     5    2    3 1
     6    2   40 1
     7    2   41 1
     8    3    4 1
     9    3   42 1
    10    3   43 1
    11    4    5 1
    12    4   44 1
    13    4   45 1
    14    5    6 1
    15    5   46 1
    16    5   47 1
    17    6    7 1
    18    6   48 1
    19    6   49 1
    20    7    8 1
    21    7   50 1
    22    7   51 1
    23    8    9 1
    24    8   52 1
    25    8   53 1
    26    9   10 1
    27    9   54 1
    28    9   55 1
    29   10   11 2
    30   10   12 am
    31   12   13 1
    32   12   56 1
    33   13   14 1
    34   13   15 1
    35   13   28 1
    36   15   16 1
    37   15   57 1
    38   15   58 1
    39   16   17 1
    40   16   59 1
    41   16   77 1
    42   17   22 1
    43   17   18 1
    44   17   60 1
    45   18   19 2
    46   18   61 1
    47   19   20 1
    48   19   26 1
    49   20   21 1
    50   20   25 1
    51   20   62 1
    52   21   22 1
    53   21   24 1
    54   21   63 1
    55   22   23 1
    56   22   64 1
    57   23   65 1
    58   24   66 1
    59   25   67 1
    60   26   27 1
    61   26   68 1
    62   26   69 1
    63   27   70 1
    64   28   29 1
    65   28   30 1
    66   28   36 1
    67   30   35 ar
    68   30   31 ar
    69   31   32 ar
    70   31   71 1
    71   32   33 ar
    72   32   72 1
    73   33   34 ar
    74   33   73 1
    75   34   35 ar
    76   34   74 1
    77   35   75 1
    78   36   76 1
@<TRIPOS>MOLECULE
CHEMBL57497__27
   76    77     0     0     0
SMALL
USER_CHARGES

@<TRIPOS>ATOM
      1 C1         -0.0187    1.5258    0.0104 C.3       1 <0>        -0.1541
      2 C2          0.0021   -0.0041    0.0020 C.3       1 <0>        -0.1263
      3 C3          0.7182   -0.4975   -1.2568 C.3       1 <0>        -0.1209
      4 C4          0.7390   -2.0273   -1.2652 C.3       1 <0>        -0.1215
      5 C5          1.4551   -2.5207   -2.5240 C.3       1 <0>        -0.1198
      6 C6          1.4758   -4.0506   -2.5324 C.3       1 <0>        -0.1194
      7 C7          2.1920   -4.5440   -3.7912 C.3       1 <0>        -0.1194
      8 C8          2.2127   -6.0738   -3.7996 C.3       1 <0>        -0.1007
      9 C9          2.9289   -6.5673   -5.0584 C.3       1 <0>        -0.1383
     10 C10         2.9493   -8.0741   -5.0667 C.2       1 <0>         0.5129
     11 O1          2.4411   -8.6925   -4.1555 O.2       1 <0>        -0.5203
     12 N1          3.5323   -8.7345   -6.0867 N.am      1 <0>        -0.7125
     13 C11         3.5522  -10.1994   -6.0948 C.3       1 <0>         0.1268
     14 H1          2.6300  -10.5777   -5.6537 H         1 <0>         0.0947
     15 C12         3.6711  -10.6999   -7.5357 C.3       1 <0>         0.0389
     16 N2          2.5886  -10.1243   -8.3449 N.3       1 <0>        -0.6586
     17 C13         2.6710  -10.5839   -9.7377 C.3       1 <0>         0.1257
     18 C14         1.9920  -11.9163   -9.8629 C.2       1 <0>        -0.1523
     19 C15         1.2078  -12.2418  -10.8400 C.2       1 <0>        -0.1514
     20 C16         0.8598  -11.3285  -11.9787 C.3       1 <0>         0.1213
     21 C17         1.8586  -10.1715  -12.0507 C.3       1 <0>         0.0831
     22 C18         1.9938   -9.5595  -10.6508 C.3       1 <0>         0.1340
     23 O2          0.6981   -9.2419  -10.1386 O.3       1 <0>        -0.5493
     24 O3          1.3816   -9.1811  -12.9638 O.3       1 <0>        -0.5609
     25 O4          0.8970  -12.0633  -13.2037 O.3       1 <0>        -0.5643
     26 C19         0.6067  -13.6237  -10.8334 C.3       1 <0>         0.1057
     27 O5          1.0554  -14.3328   -9.6767 O.3       1 <0>        -0.5682
     28 C20         4.7485  -10.6977   -5.2814 C.3       1 <0>         0.1383
     29 H2          5.6706  -10.3194   -5.7225 H         1 <0>         0.0642
     30 C21         4.6313  -10.2047   -3.8622 C.ar      1 <0>        -0.0655
     31 C22         3.8849  -10.9172   -2.9424 C.ar      1 <0>        -0.0721
     32 C23         3.7775  -10.4650   -1.6405 C.ar      1 <0>        -0.1157
     33 C24         4.4169   -9.3005   -1.2583 C.ar      1 <0>        -0.1135
     34 C25         5.1641   -8.5885   -2.1779 C.ar      1 <0>        -0.1187
     35 C26         5.2750   -9.0430   -3.4787 C.ar      1 <0>        -0.1106
     36 O6          4.7678  -12.1265   -5.2893 O.3       1 <0>        -0.5542
     37 H3          1.0039    1.9031    0.0027 H         1 <0>         0.0532
     38 H4         -0.5459    1.8868   -0.8726 H         1 <0>         0.0532
     39 H5         -0.5289    1.8773    0.9072 H         1 <0>         0.0532
     40 H6          0.5293   -0.3651    0.8851 H         1 <0>         0.0602
     41 H7         -1.0205   -0.3814    0.0098 H         1 <0>         0.0603
     42 H8          0.1910   -0.1364   -2.1398 H         1 <0>         0.0603
     43 H9          1.7408   -0.1202   -1.2645 H         1 <0>         0.0603
     44 H10         1.2661   -2.3884   -0.3821 H         1 <0>         0.0606
     45 H11        -0.2836   -2.4046   -1.2575 H         1 <0>         0.0606
     46 H12         0.9279   -2.1597   -3.4071 H         1 <0>         0.0602
     47 H13         2.4777   -2.1435   -2.5317 H         1 <0>         0.0601
     48 H14         2.0030   -4.4117   -1.6494 H         1 <0>         0.0612
     49 H15         0.4533   -4.4279   -2.5247 H         1 <0>         0.0612
     50 H16         1.6648   -4.1829   -4.6743 H         1 <0>         0.0605
     51 H17         3.2146   -4.1667   -3.7990 H         1 <0>         0.0603
     52 H18         2.7399   -6.4349   -2.9166 H         1 <0>         0.0691
     53 H19         1.1901   -6.4511   -3.7919 H         1 <0>         0.0670
     54 H20         2.4017   -6.2062   -5.9415 H         1 <0>         0.0898
     55 H21         3.9515   -6.1900   -5.0662 H         1 <0>         0.0873
     56 H22         3.9388   -8.2400   -6.8155 H         1 <0>         0.4027
     57 H23         4.6335  -10.3962   -7.9476 H         1 <0>         0.0811
     58 H24         3.5966  -11.7872   -7.5499 H         1 <0>         0.0502
     59 H25         1.6865  -10.3378   -7.9464 H         1 <0>         0.3567
     60 H26         3.7180  -10.6859  -10.0231 H         1 <0>         0.1016
     61 H27         2.1689  -12.6494   -9.0898 H         1 <0>         0.1273
     62 H28        -0.1439  -10.9305  -11.8289 H         1 <0>         0.0799
     63 H29         2.8276  -10.5441  -12.3829 H         1 <0>         0.0737
     64 H30         2.6021   -8.6564  -10.7027 H         1 <0>         0.0779
     65 H31         0.2123   -8.5966  -10.6703 H         1 <0>         0.3834
     66 H32         1.2576   -9.5055  -13.8663 H         1 <0>         0.3906
     67 H33         0.2805  -12.8076  -13.2348 H         1 <0>         0.3816
     68 H34        -0.4804  -13.5469  -10.8134 H         1 <0>         0.0573
     69 H35         0.9167  -14.1591  -11.7308 H         1 <0>         0.0602
     70 H36         0.7071  -15.2322   -9.6070 H         1 <0>         0.3860
     71 H37         3.3853  -11.8270   -3.2410 H         1 <0>         0.1178
     72 H38         3.1937  -11.0213   -0.9221 H         1 <0>         0.1162
     73 H39         4.3323   -8.9468   -0.2414 H         1 <0>         0.1159
     74 H40         5.6633   -7.6785   -1.8794 H         1 <0>         0.1162
     75 H41         5.8618   -8.4887   -4.1962 H         1 <0>         0.1111
     76 H42         4.8418  -12.5140   -6.1722 H         1 <0>         0.3771
@<TRIPOS>BOND
     1    1    2 1
     2    1   37 1
     3    1   38 1
     4    1   39 1
     5    2    3 1
     6    2   40 1
     7    2   41 1
     8    3    4 1
     9    3   42 1
    10    3   43 1
    11    4    5 1
    12    4   44 1
    13    4   45 1
    14    5    6 1
    15    5   46 1
    16    5   47 1
    17    6    7 1
    18    6   48 1
    19    6   49 1
    20    7    8 1
    21    7   50 1
    22    7   51 1
    23    8    9 1
    24    8   52 1
    25    8   53 1
    26    9   10 1
    27    9   54 1
    28    9   55 1
    29   10   11 2
    30   10   12 am
    31   12   13 1
    32   12   56 1
    33   13   14 1
    34   13   15 1
    35   13   28 1
    36   15   16 1
    37   15   57 1
    38   15   58 1
    39   16   17 1
    40   16   59 1
    41   17   22 1
    42   17   18 1
    43   17   60 1
    44   18   19 2
    45   18   61 1
    46   19   20 1
    47   19   26 1
    48   20   21 1
    49   20   25 1
    50   20   62 1
    51   21   22 1
    52   21   24 1
    53   21   63 1
    54   22   23 1
    55   22   64 1
    56   23   65 1
    57   24   66 1
    58   25   67 1
    59   26   27 1
    60   26   68 1
    61   26   69 1
    62   27   70 1
    63   28   29 1
    64   28   30 1
    65   28   36 1
    66   30   35 ar
    67   30   31 ar
    68   31   32 ar
    69   31   71 1
    70   32   33 ar
    71   32   72 1
    72   33   34 ar
    73   33   73 1
    74   34   35 ar
    75   34   74 1
    76   35   75 1
    77   36   76 1
@<TRIPOS>MOLECULE
CHEMBL57497__28
   77    78     0     0     0
SMALL
USER_CHARGES

@<TRIPOS>ATOM
      1 C1         -0.0187    1.5258    0.0104 C.3       1 <0>        -0.1550
      2 C2          0.0021   -0.0041    0.0020 C.3       1 <0>        -0.1263
      3 C3         -1.4333   -0.5336    0.0129 C.3       1 <0>        -0.1211
      4 C4         -1.4126   -2.0635    0.0045 C.3       1 <0>        -0.1217
      5 C5         -2.8479   -2.5931    0.0153 C.3       1 <0>        -0.1202
      6 C6         -2.8272   -4.1229    0.0069 C.3       1 <0>        -0.1199
      7 C7         -4.2626   -4.6525    0.0178 C.3       1 <0>        -0.1201
      8 C8         -4.2418   -6.1823    0.0094 C.3       1 <0>        -0.1036
      9 C9         -5.6772   -6.7119    0.0202 C.3       1 <0>        -0.1398
     10 C10        -5.6568   -8.2187    0.0119 C.2       1 <0>         0.5149
     11 O1         -4.5984   -8.8108   -0.0014 O.2       1 <0>        -0.4918
     12 N1         -6.8147   -8.9084    0.0193 N.am      1 <0>        -0.7518
     13 C11        -6.7948  -10.3733    0.0112 C.3       1 <0>         0.0960
     14 H1         -5.9426  -10.7283    0.5907 H         1 <0>         0.1157
     15 C12        -8.0892  -10.9043    0.6304 C.3       1 <0>        -0.0174
     16 N2         -8.2633  -10.3282    1.9705 N.4       1 <0>        -0.5031
     17 C13        -9.5062  -10.8381    2.5650 C.3       1 <0>         0.0845
     18 C14        -9.3902  -12.3208    2.7649 C.2       1 <0>        -0.1907
     19 C15        -9.7903  -12.9429    3.8272 C.2       1 <0>        -0.0858
     20 C16       -10.4163  -12.2669    5.0118 C.3       1 <0>         0.0997
     21 C17       -10.8945  -10.8652    4.6269 C.3       1 <0>         0.0937
     22 C18        -9.7493  -10.1428    3.9063 C.3       1 <0>         0.0968
     23 O2        -10.1081   -8.7779    3.6818 O.3       1 <0>        -0.5544
     24 O3        -12.0231  -10.9649    3.7560 O.3       1 <0>        -0.5476
     25 O4        -11.5299  -13.0397    5.4643 O.3       1 <0>        -0.5491
     26 C19        -9.6161  -14.4389    3.8778 C.3       1 <0>         0.0938
     27 O5         -9.0069  -14.8888    2.6659 O.3       1 <0>        -0.5722
     28 C20        -6.6759  -10.8738   -1.4297 C.3       1 <0>         0.1475
     29 H2         -7.5282  -10.5188   -2.0091 H         1 <0>         0.1169
     30 C21        -5.4009  -10.3508   -2.0396 C.ar      1 <0>        -0.1157
     31 C22        -4.2136  -11.0330   -1.8505 C.ar      1 <0>        -0.0915
     32 C23        -3.0441  -10.5533   -2.4099 C.ar      1 <0>        -0.1053
     33 C24        -3.0620   -9.3915   -3.1588 C.ar      1 <0>        -0.1043
     34 C25        -4.2494   -8.7097   -3.3486 C.ar      1 <0>        -0.1119
     35 C26        -5.4197   -9.1918   -2.7928 C.ar      1 <0>        -0.1085
     36 O6         -6.6565  -12.3026   -1.4375 O.3       1 <0>        -0.5450
     37 H3          1.0039    1.9031    0.0027 H         1 <0>         0.0548
     38 H4         -0.5459    1.8868   -0.8726 H         1 <0>         0.0537
     39 H5         -0.5289    1.8773    0.9072 H         1 <0>         0.0534
     40 H6          0.5123   -0.3556   -0.8948 H         1 <0>         0.0607
     41 H7          0.5293   -0.3651    0.8851 H         1 <0>         0.0603
     42 H8         -1.9435   -0.1821    0.9097 H         1 <0>         0.0605
     43 H9         -1.9605   -0.1726   -0.8702 H         1 <0>         0.0609
     44 H10        -0.9024   -2.4150   -0.8923 H         1 <0>         0.0612
     45 H11        -0.8854   -2.4246    0.8875 H         1 <0>         0.0607
     46 H12        -3.3581   -2.2415    0.9121 H         1 <0>         0.0604
     47 H13        -3.3751   -2.2320   -0.8677 H         1 <0>         0.0612
     48 H14        -2.3170   -4.4744   -0.8899 H         1 <0>         0.0625
     49 H15        -2.3000   -4.4840    0.8900 H         1 <0>         0.0615
     50 H16        -4.7728   -4.3010    0.9146 H         1 <0>         0.0615
     51 H17        -4.7898   -4.2914   -0.8653 H         1 <0>         0.0630
     52 H18        -3.7316   -6.5338   -0.8874 H         1 <0>         0.0723
     53 H19        -3.7146   -6.5434    0.8924 H         1 <0>         0.0687
     54 H20        -6.1874   -6.3604    0.9170 H         1 <0>         0.0935
     55 H21        -6.2044   -6.3508   -0.8628 H         1 <0>         0.0973
     56 H22        -7.6612   -8.4349    0.0299 H         1 <0>         0.4021
     57 H23        -8.9344  -10.6239    0.0018 H         1 <0>         0.1424
     58 H24        -8.0371  -11.9904    0.7058 H         1 <0>         0.1568
     59 H25        -7.4810  -10.5878    2.5524 H         1 <0>         0.4250
     60 H26       -10.3395  -10.6301    1.8939 H         1 <0>         0.1640
     61 H27        -8.9456  -12.9054    1.9730 H         1 <0>         0.1572
     62 H28        -9.6823  -12.1907    5.8139 H         1 <0>         0.0906
     63 H29       -11.1688  -10.3121    5.5252 H         1 <0>         0.0921
     64 H30        -8.8456  -10.1921    4.5137 H         1 <0>         0.0959
     65 H31       -10.2767   -8.2772    4.4917 H         1 <0>         0.4084
     66 H32       -12.7794  -11.4263    4.1436 H         1 <0>         0.4019
     67 H33       -11.3003  -13.9389    5.7360 H         1 <0>         0.3942
     68 H34        -8.9807  -14.7024    4.7234 H         1 <0>         0.0736
     69 H35       -10.5901  -14.9145    3.9931 H         1 <0>         0.0770
     70 H36        -8.8641  -15.8445    2.6287 H         1 <0>         0.3995
     71 H37        -4.1997  -11.9407   -1.2654 H         1 <0>         0.1126
     72 H38        -2.1164  -11.0859   -2.2615 H         1 <0>         0.1223
     73 H39        -2.1481   -9.0163   -3.5952 H         1 <0>         0.1227
     74 H40        -4.2633   -7.8018   -3.9334 H         1 <0>         0.1215
     75 H41        -6.3481   -8.6612   -2.9442 H         1 <0>         0.1139
     76 H42        -5.9228  -12.6888   -0.9399 H         1 <0>         0.3812
     77 H43        -8.3116   -9.3228    1.9007 H         1 <0>         0.4310
@<TRIPOS>BOND
     1    1    2 1
     2    1   37 1
     3    1   38 1
     4    1   39 1
     5    2    3 1
     6    2   40 1
     7    2   41 1
     8    3    4 1
     9    3   42 1
    10    3   43 1
    11    4    5 1
    12    4   44 1
    13    4   45 1
    14    5    6 1
    15    5   46 1
    16    5   47 1
    17    6    7 1
    18    6   48 1
    19    6   49 1
    20    7    8 1
    21    7   50 1
    22    7   51 1
    23    8    9 1
    24    8   52 1
    25    8   53 1
    26    9   10 1
    27    9   54 1
    28    9   55 1
    29   10   11 2
    30   10   12 am
    31   12   13 1
    32   12   56 1
    33   13   14 1
    34   13   15 1
    35   13   28 1
    36   15   16 1
    37   15   57 1
    38   15   58 1
    39   16   17 1
    40   16   59 1
    41   16   77 1
    42   17   22 1
    43   17   18 1
    44   17   60 1
    45   18   19 2
    46   18   61 1
    47   19   20 1
    48   19   26 1
    49   20   21 1
    50   20   25 1
    51   20   62 1
    52   21   22 1
    53   21   24 1
    54   21   63 1
    55   22   23 1
    56   22   64 1
    57   23   65 1
    58   24   66 1
    59   25   67 1
    60   26   27 1
    61   26   68 1
    62   26   69 1
    63   27   70 1
    64   28   29 1
    65   28   30 1
    66   28   36 1
    67   30   35 ar
    68   30   31 ar
    69   31   32 ar
    70   31   71 1
    71   32   33 ar
    72   32   72 1
    73   33   34 ar
    74   33   73 1
    75   34   35 ar
    76   34   74 1
    77   35   75 1
    78   36   76 1
@<TRIPOS>MOLECULE
CHEMBL57497__29
   76    77     0     0     0
SMALL
USER_CHARGES

@<TRIPOS>ATOM
      1 C1         -0.0187    1.5258    0.0104 C.3       1 <0>        -0.1541
      2 C2          0.0021   -0.0041    0.0020 C.3       1 <0>        -0.1263
      3 C3          0.7182   -0.4975   -1.2568 C.3       1 <0>        -0.1209
      4 C4          0.7390   -2.0273   -1.2652 C.3       1 <0>        -0.1214
      5 C5          1.4551   -2.5207   -2.5240 C.3       1 <0>        -0.1198
      6 C6          1.4758   -4.0506   -2.5324 C.3       1 <0>        -0.1193
      7 C7          2.1920   -4.5440   -3.7912 C.3       1 <0>        -0.1195
      8 C8          2.2127   -6.0738   -3.7996 C.3       1 <0>        -0.1004
      9 C9          2.9289   -6.5673   -5.0584 C.3       1 <0>        -0.1383
     10 C10         2.9493   -8.0741   -5.0667 C.2       1 <0>         0.5122
     11 O1          2.4411   -8.6925   -4.1555 O.2       1 <0>        -0.5221
     12 N1          3.5323   -8.7345   -6.0867 N.am      1 <0>        -0.7117
     13 C11         3.5522  -10.1994   -6.0948 C.3       1 <0>         0.1268
     14 H1          2.6300  -10.5777   -5.6537 H         1 <0>         0.0936
     15 C12         3.6711  -10.6999   -7.5357 C.3       1 <0>         0.0441
     16 N2          2.5886  -10.1243   -8.3449 N.3       1 <0>        -0.6640
     17 C13         2.6710  -10.5839   -9.7377 C.3       1 <0>         0.1294
     18 C14         1.9920  -11.9163   -9.8629 C.2       1 <0>        -0.1396
     19 C15         1.2078  -12.2418  -10.8400 C.2       1 <0>        -0.1627
     20 C16         0.8598  -11.3285  -11.9787 C.3       1 <0>         0.1160
     21 C17         1.8586  -10.1715  -12.0507 C.3       1 <0>         0.0867
     22 C18         1.9938   -9.5595  -10.6508 C.3       1 <0>         0.1318
     23 O2          2.7912   -8.3756  -10.7189 O.3       1 <0>        -0.5388
     24 O3          3.1290  -10.6600  -12.4862 O.3       1 <0>        -0.5437
     25 O4          0.8970  -12.0633  -13.2037 O.3       1 <0>        -0.5588
     26 C19         0.6067  -13.6237  -10.8334 C.3       1 <0>         0.1065
     27 O5          1.0554  -14.3328   -9.6767 O.3       1 <0>        -0.5682
     28 C20         4.7485  -10.6977   -5.2814 C.3       1 <0>         0.1377
     29 H2          5.6706  -10.3194   -5.7225 H         1 <0>         0.0647
     30 C21         4.6313  -10.2047   -3.8622 C.ar      1 <0>        -0.0646
     31 C22         3.8849  -10.9172   -2.9424 C.ar      1 <0>        -0.0723
     32 C23         3.7775  -10.4650   -1.6405 C.ar      1 <0>        -0.1160
     33 C24         4.4169   -9.3005   -1.2583 C.ar      1 <0>        -0.1138
     34 C25         5.1641   -8.5885   -2.1779 C.ar      1 <0>        -0.1186
     35 C26         5.2750   -9.0430   -3.4787 C.ar      1 <0>        -0.1105
     36 O6          4.7678  -12.1265   -5.2893 O.3       1 <0>        -0.5547
     37 H3          1.0039    1.9031    0.0027 H         1 <0>         0.0532
     38 H4         -0.5459    1.8868   -0.8726 H         1 <0>         0.0531
     39 H5         -0.5289    1.8773    0.9072 H         1 <0>         0.0532
     40 H6          0.5293   -0.3651    0.8851 H         1 <0>         0.0603
     41 H7         -1.0205   -0.3814    0.0098 H         1 <0>         0.0602
     42 H8          0.1910   -0.1364   -2.1398 H         1 <0>         0.0603
     43 H9          1.7408   -0.1202   -1.2645 H         1 <0>         0.0604
     44 H10         1.2661   -2.3884   -0.3821 H         1 <0>         0.0606
     45 H11        -0.2836   -2.4046   -1.2575 H         1 <0>         0.0605
     46 H12         0.9279   -2.1597   -3.4071 H         1 <0>         0.0601
     47 H13         2.4777   -2.1435   -2.5317 H         1 <0>         0.0602
     48 H14         2.0030   -4.4117   -1.6494 H         1 <0>         0.0613
     49 H15         0.4533   -4.4279   -2.5247 H         1 <0>         0.0609
     50 H16         1.6648   -4.1829   -4.6743 H         1 <0>         0.0603
     51 H17         3.2146   -4.1667   -3.7990 H         1 <0>         0.0605
     52 H18         2.7399   -6.4349   -2.9166 H         1 <0>         0.0692
     53 H19         1.1901   -6.4511   -3.7919 H         1 <0>         0.0664
     54 H20         2.4017   -6.2062   -5.9415 H         1 <0>         0.0895
     55 H21         3.9515   -6.1900   -5.0662 H         1 <0>         0.0876
     56 H22         3.9388   -8.2400   -6.8155 H         1 <0>         0.4049
     57 H23         4.6335  -10.3962   -7.9476 H         1 <0>         0.0827
     58 H24         3.5966  -11.7872   -7.5499 H         1 <0>         0.0490
     59 H25         1.6865  -10.3378   -7.9464 H         1 <0>         0.3431
     60 H26         3.7180  -10.6859  -10.0231 H         1 <0>         0.1071
     61 H27         2.1689  -12.6494   -9.0898 H         1 <0>         0.1298
     62 H28        -0.1439  -10.9305  -11.8289 H         1 <0>         0.0734
     63 H29         1.4948   -9.4161  -12.7472 H         1 <0>         0.0698
     64 H30         1.0055   -9.3172  -10.2601 H         1 <0>         0.0722
     65 H31         2.4197   -7.6830  -11.2823 H         1 <0>         0.3760
     66 H32         3.1124  -11.0753  -13.3593 H         1 <0>         0.3847
     67 H33         0.2805  -12.8076  -13.2348 H         1 <0>         0.3836
     68 H34        -0.4804  -13.5469  -10.8134 H         1 <0>         0.0561
     69 H35         0.9167  -14.1591  -11.7308 H         1 <0>         0.0603
     70 H36         0.7071  -15.2322   -9.6070 H         1 <0>         0.3862
     71 H37         3.3853  -11.8270   -3.2410 H         1 <0>         0.1176
     72 H38         3.1937  -11.0213   -0.9221 H         1 <0>         0.1159
     73 H39         4.3323   -8.9468   -0.2414 H         1 <0>         0.1157
     74 H40         5.6633   -7.6785   -1.8794 H         1 <0>         0.1161
     75 H41         5.8618   -8.4887   -4.1962 H         1 <0>         0.1113
     76 H42         4.8418  -12.5140   -6.1722 H         1 <0>         0.3775
@<TRIPOS>BOND
     1    1    2 1
     2    1   37 1
     3    1   38 1
     4    1   39 1
     5    2    3 1
     6    2   40 1
     7    2   41 1
     8    3    4 1
     9    3   42 1
    10    3   43 1
    11    4    5 1
    12    4   44 1
    13    4   45 1
    14    5    6 1
    15    5   46 1
    16    5   47 1
    17    6    7 1
    18    6   48 1
    19    6   49 1
    20    7    8 1
    21    7   50 1
    22    7   51 1
    23    8    9 1
    24    8   52 1
    25    8   53 1
    26    9   10 1
    27    9   54 1
    28    9   55 1
    29   10   11 2
    30   10   12 am
    31   12   13 1
    32   12   56 1
    33   13   14 1
    34   13   15 1
    35   13   28 1
    36   15   16 1
    37   15   57 1
    38   15   58 1
    39   16   17 1
    40   16   59 1
    41   17   22 1
    42   17   18 1
    43   17   60 1
    44   18   19 2
    45   18   61 1
    46   19   20 1
    47   19   26 1
    48   20   21 1
    49   20   25 1
    50   20   62 1
    51   21   22 1
    52   21   24 1
    53   21   63 1
    54   22   23 1
    55   22   64 1
    56   23   65 1
    57   24   66 1
    58   25   67 1
    59   26   27 1
    60   26   68 1
    61   26   69 1
    62   27   70 1
    63   28   29 1
    64   28   30 1
    65   28   36 1
    66   30   35 ar
    67   30   31 ar
    68   31   32 ar
    69   31   71 1
    70   32   33 ar
    71   32   72 1
    72   33   34 ar
    73   33   73 1
    74   34   35 ar
    75   34   74 1
    76   35   75 1
    77   36   76 1
@<TRIPOS>MOLECULE
CHEMBL57497__30
   77    78     0     0     0
SMALL
USER_CHARGES

@<TRIPOS>ATOM
      1 C1         -0.0187    1.5258    0.0104 C.3       1 <0>        -0.1550
      2 C2          0.0021   -0.0041    0.0020 C.3       1 <0>        -0.1264
      3 C3         -1.4333   -0.5336    0.0129 C.3       1 <0>        -0.1211
      4 C4         -1.4126   -2.0635    0.0045 C.3       1 <0>        -0.1218
      5 C5         -2.8479   -2.5931    0.0153 C.3       1 <0>        -0.1201
      6 C6         -2.8272   -4.1229    0.0069 C.3       1 <0>        -0.1201
      7 C7         -4.2626   -4.6525    0.0178 C.3       1 <0>        -0.1198
      8 C8         -4.2418   -6.1823    0.0094 C.3       1 <0>        -0.1040
      9 C9         -5.6772   -6.7119    0.0202 C.3       1 <0>        -0.1393
     10 C10        -5.6568   -8.2187    0.0119 C.2       1 <0>         0.5146
     11 O1         -4.5984   -8.8108   -0.0014 O.2       1 <0>        -0.4904
     12 N1         -6.8147   -8.9084    0.0193 N.am      1 <0>        -0.7517
     13 C11        -6.7948  -10.3733    0.0112 C.3       1 <0>         0.0964
     14 H1         -5.9426  -10.7283    0.5907 H         1 <0>         0.1159
     15 C12        -8.0892  -10.9043    0.6304 C.3       1 <0>        -0.0184
     16 N2         -8.2633  -10.3282    1.9705 N.4       1 <0>        -0.4996
     17 C13        -9.5062  -10.8381    2.5650 C.3       1 <0>         0.0874
     18 C14        -9.3902  -12.3208    2.7649 C.2       1 <0>        -0.1904
     19 C15        -9.7903  -12.9429    3.8272 C.2       1 <0>        -0.0779
     20 C16       -10.4163  -12.2669    5.0118 C.3       1 <0>         0.1048
     21 C17       -10.8945  -10.8652    4.6269 C.3       1 <0>         0.0928
     22 C18        -9.7493  -10.1428    3.9063 C.3       1 <0>         0.0941
     23 O2         -8.5645  -10.2075    4.7026 O.3       1 <0>        -0.5615
     24 O3        -12.0231  -10.9649    3.7560 O.3       1 <0>        -0.5542
     25 O4        -11.5299  -13.0397    5.4643 O.3       1 <0>        -0.5538
     26 C19        -9.6161  -14.4389    3.8778 C.3       1 <0>         0.0940
     27 O5         -9.0069  -14.8888    2.6659 O.3       1 <0>        -0.5720
     28 C20        -6.6759  -10.8738   -1.4297 C.3       1 <0>         0.1477
     29 H2         -7.5282  -10.5188   -2.0091 H         1 <0>         0.1166
     30 C21        -5.4009  -10.3508   -2.0396 C.ar      1 <0>        -0.1157
     31 C22        -4.2136  -11.0330   -1.8505 C.ar      1 <0>        -0.0914
     32 C23        -3.0441  -10.5533   -2.4099 C.ar      1 <0>        -0.1052
     33 C24        -3.0620   -9.3915   -3.1588 C.ar      1 <0>        -0.1044
     34 C25        -4.2494   -8.7097   -3.3486 C.ar      1 <0>        -0.1121
     35 C26        -5.4197   -9.1918   -2.7928 C.ar      1 <0>        -0.1087
     36 O6         -6.6565  -12.3026   -1.4375 O.3       1 <0>        -0.5452
     37 H3          1.0039    1.9031    0.0027 H         1 <0>         0.0548
     38 H4         -0.5459    1.8868   -0.8726 H         1 <0>         0.0537
     39 H5         -0.5289    1.8773    0.9072 H         1 <0>         0.0534
     40 H6          0.5123   -0.3556   -0.8948 H         1 <0>         0.0607
     41 H7          0.5293   -0.3651    0.8851 H         1 <0>         0.0604
     42 H8         -1.9435   -0.1821    0.9097 H         1 <0>         0.0604
     43 H9         -1.9605   -0.1726   -0.8702 H         1 <0>         0.0608
     44 H10        -0.9024   -2.4150   -0.8923 H         1 <0>         0.0613
     45 H11        -0.8854   -2.4246    0.8875 H         1 <0>         0.0608
     46 H12        -3.3581   -2.2415    0.9121 H         1 <0>         0.0604
     47 H13        -3.3751   -2.2320   -0.8677 H         1 <0>         0.0611
     48 H14        -2.3170   -4.4744   -0.8899 H         1 <0>         0.0626
     49 H15        -2.3000   -4.4840    0.8900 H         1 <0>         0.0617
     50 H16        -4.7728   -4.3010    0.9146 H         1 <0>         0.0613
     51 H17        -4.7898   -4.2914   -0.8653 H         1 <0>         0.0628
     52 H18        -3.7316   -6.5338   -0.8874 H         1 <0>         0.0724
     53 H19        -3.7146   -6.5434    0.8924 H         1 <0>         0.0690
     54 H20        -6.1874   -6.3604    0.9170 H         1 <0>         0.0929
     55 H21        -6.2044   -6.3508   -0.8628 H         1 <0>         0.0970
     56 H22        -7.6612   -8.4349    0.0299 H         1 <0>         0.4005
     57 H23        -8.9344  -10.6239    0.0018 H         1 <0>         0.1413
     58 H24        -8.0371  -11.9904    0.7058 H         1 <0>         0.1565
     59 H25        -7.4810  -10.5878    2.5524 H         1 <0>         0.4353
     60 H26       -10.3395  -10.6301    1.8939 H         1 <0>         0.1643
     61 H27        -8.9456  -12.9054    1.9730 H         1 <0>         0.1508
     62 H28        -9.6823  -12.1907    5.8139 H         1 <0>         0.0920
     63 H29       -11.1688  -10.3121    5.5252 H         1 <0>         0.0912
     64 H30       -10.0230   -9.1017    3.7350 H         1 <0>         0.1028
     65 H31        -8.6489   -9.7849    5.5682 H         1 <0>         0.4113
     66 H32       -12.7794  -11.4263    4.1436 H         1 <0>         0.4066
     67 H33       -11.3003  -13.9389    5.7360 H         1 <0>         0.3934
     68 H34        -8.9807  -14.7024    4.7234 H         1 <0>         0.0720
     69 H35       -10.5901  -14.9145    3.9931 H         1 <0>         0.0748
     70 H36        -8.8641  -15.8445    2.6287 H         1 <0>         0.3981
     71 H37        -4.1997  -11.9407   -1.2654 H         1 <0>         0.1127
     72 H38        -2.1164  -11.0859   -2.2615 H         1 <0>         0.1224
     73 H39        -2.1481   -9.0163   -3.5952 H         1 <0>         0.1227
     74 H40        -4.2633   -7.8018   -3.9334 H         1 <0>         0.1214
     75 H41        -6.3481   -8.6612   -2.9442 H         1 <0>         0.1137
     76 H42        -5.9228  -12.6888   -0.9399 H         1 <0>         0.3817
     77 H43        -8.3116   -9.3228    1.9007 H         1 <0>         0.4229
@<TRIPOS>BOND
     1    1    2 1
     2    1   37 1
     3    1   38 1
     4    1   39 1
     5    2    3 1
     6    2   40 1
     7    2   41 1
     8    3    4 1
     9    3   42 1
    10    3   43 1
    11    4    5 1
    12    4   44 1
    13    4   45 1
    14    5    6 1
    15    5   46 1
    16    5   47 1
    17    6    7 1
    18    6   48 1
    19    6   49 1
    20    7    8 1
    21    7   50 1
    22    7   51 1
    23    8    9 1
    24    8   52 1
    25    8   53 1
    26    9   10 1
    27    9   54 1
    28    9   55 1
    29   10   11 2
    30   10   12 am
    31   12   13 1
    32   12   56 1
    33   13   14 1
    34   13   15 1
    35   13   28 1
    36   15   16 1
    37   15   57 1
    38   15   58 1
    39   16   17 1
    40   16   59 1
    41   16   77 1
    42   17   22 1
    43   17   18 1
    44   17   60 1
    45   18   19 2
    46   18   61 1
    47   19   20 1
    48   19   26 1
    49   20   21 1
    50   20   25 1
    51   20   62 1
    52   21   22 1
    53   21   24 1
    54   21   63 1
    55   22   23 1
    56   22   64 1
    57   23   65 1
    58   24   66 1
    59   25   67 1
    60   26   27 1
    61   26   68 1
    62   26   69 1
    63   27   70 1
    64   28   29 1
    65   28   30 1
    66   28   36 1
    67   30   35 ar
    68   30   31 ar
    69   31   32 ar
    70   31   71 1
    71   32   33 ar
    72   32   72 1
    73   33   34 ar
    74   33   73 1
    75   34   35 ar
    76   34   74 1
    77   35   75 1
    78   36   76 1
@<TRIPOS>MOLECULE
CHEMBL57497__31
   76    77     0     0     0
SMALL
USER_CHARGES

@<TRIPOS>ATOM
      1 C1         -0.0187    1.5258    0.0104 C.3       1 <0>        -0.1541
      2 C2          0.0021   -0.0041    0.0020 C.3       1 <0>        -0.1263
      3 C3          0.7182   -0.4975   -1.2568 C.3       1 <0>        -0.1209
      4 C4          0.7390   -2.0273   -1.2652 C.3       1 <0>        -0.1215
      5 C5          1.4551   -2.5207   -2.5240 C.3       1 <0>        -0.1197
      6 C6          1.4758   -4.0506   -2.5324 C.3       1 <0>        -0.1195
      7 C7          2.1920   -4.5440   -3.7912 C.3       1 <0>        -0.1193
      8 C8          2.2127   -6.0738   -3.7996 C.3       1 <0>        -0.1007
      9 C9          2.9289   -6.5673   -5.0584 C.3       1 <0>        -0.1381
     10 C10         2.9493   -8.0741   -5.0667 C.2       1 <0>         0.5125
     11 O1          2.4411   -8.6925   -4.1555 O.2       1 <0>        -0.5207
     12 N1          3.5323   -8.7345   -6.0867 N.am      1 <0>        -0.7119
     13 C11         3.5522  -10.1994   -6.0948 C.3       1 <0>         0.1271
     14 H1          2.6300  -10.5777   -5.6537 H         1 <0>         0.0941
     15 C12         3.6711  -10.6999   -7.5357 C.3       1 <0>         0.0397
     16 N2          2.5886  -10.1243   -8.3449 N.3       1 <0>        -0.6628
     17 C13         2.6710  -10.5839   -9.7377 C.3       1 <0>         0.1319
     18 C14         1.9920  -11.9163   -9.8629 C.2       1 <0>        -0.1392
     19 C15         1.2078  -12.2418  -10.8400 C.2       1 <0>        -0.1552
     20 C16         0.8598  -11.3285  -11.9787 C.3       1 <0>         0.1211
     21 C17         1.8586  -10.1715  -12.0507 C.3       1 <0>         0.0862
     22 C18         1.9938   -9.5595  -10.6508 C.3       1 <0>         0.1285
     23 O2          0.6981   -9.2419  -10.1386 O.3       1 <0>        -0.5441
     24 O3          3.1290  -10.6600  -12.4862 O.3       1 <0>        -0.5504
     25 O4          0.8970  -12.0633  -13.2037 O.3       1 <0>        -0.5638
     26 C19         0.6067  -13.6237  -10.8334 C.3       1 <0>         0.1065
     27 O5          1.0554  -14.3328   -9.6767 O.3       1 <0>        -0.5680
     28 C20         4.7485  -10.6977   -5.2814 C.3       1 <0>         0.1380
     29 H2          5.6706  -10.3194   -5.7225 H         1 <0>         0.0642
     30 C21         4.6313  -10.2047   -3.8622 C.ar      1 <0>        -0.0649
     31 C22         3.8849  -10.9172   -2.9424 C.ar      1 <0>        -0.0721
     32 C23         3.7775  -10.4650   -1.6405 C.ar      1 <0>        -0.1158
     33 C24         4.4169   -9.3005   -1.2583 C.ar      1 <0>        -0.1138
     34 C25         5.1641   -8.5885   -2.1779 C.ar      1 <0>        -0.1188
     35 C26         5.2750   -9.0430   -3.4787 C.ar      1 <0>        -0.1107
     36 O6          4.7678  -12.1265   -5.2893 O.3       1 <0>        -0.5545
     37 H3          1.0039    1.9031    0.0027 H         1 <0>         0.0532
     38 H4         -0.5459    1.8868   -0.8726 H         1 <0>         0.0531
     39 H5         -0.5289    1.8773    0.9072 H         1 <0>         0.0532
     40 H6          0.5293   -0.3651    0.8851 H         1 <0>         0.0603
     41 H7         -1.0205   -0.3814    0.0098 H         1 <0>         0.0602
     42 H8          0.1910   -0.1364   -2.1398 H         1 <0>         0.0603
     43 H9          1.7408   -0.1202   -1.2645 H         1 <0>         0.0603
     44 H10         1.2661   -2.3884   -0.3821 H         1 <0>         0.0606
     45 H11        -0.2836   -2.4046   -1.2575 H         1 <0>         0.0606
     46 H12         0.9279   -2.1597   -3.4071 H         1 <0>         0.0601
     47 H13         2.4777   -2.1435   -2.5317 H         1 <0>         0.0601
     48 H14         2.0030   -4.4117   -1.6494 H         1 <0>         0.0613
     49 H15         0.4533   -4.4279   -2.5247 H         1 <0>         0.0611
     50 H16         1.6648   -4.1829   -4.6743 H         1 <0>         0.0603
     51 H17         3.2146   -4.1667   -3.7990 H         1 <0>         0.0603
     52 H18         2.7399   -6.4349   -2.9166 H         1 <0>         0.0692
     53 H19         1.1901   -6.4511   -3.7919 H         1 <0>         0.0669
     54 H20         2.4017   -6.2062   -5.9415 H         1 <0>         0.0894
     55 H21         3.9515   -6.1900   -5.0662 H         1 <0>         0.0872
     56 H22         3.9388   -8.2400   -6.8155 H         1 <0>         0.4026
     57 H23         4.6335  -10.3962   -7.9476 H         1 <0>         0.0806
     58 H24         3.5966  -11.7872   -7.5499 H         1 <0>         0.0490
     59 H25         1.6865  -10.3378   -7.9464 H         1 <0>         0.3534
     60 H26         3.7180  -10.6859  -10.0231 H         1 <0>         0.1070
     61 H27         2.1689  -12.6494   -9.0898 H         1 <0>         0.1228
     62 H28        -0.1439  -10.9305  -11.8289 H         1 <0>         0.0756
     63 H29         1.4948   -9.4161  -12.7472 H         1 <0>         0.0685
     64 H30         2.6021   -8.6564  -10.7027 H         1 <0>         0.0780
     65 H31         0.2123   -8.5966  -10.6703 H         1 <0>         0.3780
     66 H32         3.1124  -11.0753  -13.3593 H         1 <0>         0.3898
     67 H33         0.2805  -12.8076  -13.2348 H         1 <0>         0.3828
     68 H34        -0.4804  -13.5469  -10.8134 H         1 <0>         0.0544
     69 H35         0.9167  -14.1591  -11.7308 H         1 <0>         0.0580
     70 H36         0.7071  -15.2322   -9.6070 H         1 <0>         0.3847
     71 H37         3.3853  -11.8270   -3.2410 H         1 <0>         0.1178
     72 H38         3.1937  -11.0213   -0.9221 H         1 <0>         0.1161
     73 H39         4.3323   -8.9468   -0.2414 H         1 <0>         0.1157
     74 H40         5.6633   -7.6785   -1.8794 H         1 <0>         0.1160
     75 H41         5.8618   -8.4887   -4.1962 H         1 <0>         0.1110
     76 H42         4.8418  -12.5140   -6.1722 H         1 <0>         0.3775
@<TRIPOS>BOND
     1    1    2 1
     2    1   37 1
     3    1   38 1
     4    1   39 1
     5    2    3 1
     6    2   40 1
     7    2   41 1
     8    3    4 1
     9    3   42 1
    10    3   43 1
    11    4    5 1
    12    4   44 1
    13    4   45 1
    14    5    6 1
    15    5   46 1
    16    5   47 1
    17    6    7 1
    18    6   48 1
    19    6   49 1
    20    7    8 1
    21    7   50 1
    22    7   51 1
    23    8    9 1
    24    8   52 1
    25    8   53 1
    26    9   10 1
    27    9   54 1
    28    9   55 1
    29   10   11 2
    30   10   12 am
    31   12   13 1
    32   12   56 1
    33   13   14 1
    34   13   15 1
    35   13   28 1
    36   15   16 1
    37   15   57 1
    38   15   58 1
    39   16   17 1
    40   16   59 1
    41   17   22 1
    42   17   18 1
    43   17   60 1
    44   18   19 2
    45   18   61 1
    46   19   20 1
    47   19   26 1
    48   20   21 1
    49   20   25 1
    50   20   62 1
    51   21   22 1
    52   21   24 1
    53   21   63 1
    54   22   23 1
    55   22   64 1
    56   23   65 1
    57   24   66 1
    58   25   67 1
    59   26   27 1
    60   26   68 1
    61   26   69 1
    62   27   70 1
    63   28   29 1
    64   28   30 1
    65   28   36 1
    66   30   35 ar
    67   30   31 ar
    68   31   32 ar
    69   31   71 1
    70   32   33 ar
    71   32   72 1
    72   33   34 ar
    73   33   73 1
    74   34   35 ar
    75   34   74 1
    76   35   75 1
    77   36   76 1
@<TRIPOS>MOLECULE
CHEMBL10437
   25    25     0     0     0
SMALL
USER_CHARGES

@<TRIPOS>ATOM
      1 C1         -0.0187    1.5258    0.0104 C.3       1 <0>         0.0585
      2 C2          0.0021   -0.0041    0.0020 C.3       1 <0>         0.0467
      3 H1         -1.0087   -0.3972    0.1111 H         1 <0>         0.1659
      4 C3          0.9133   -0.5373    1.1355 C.3       1 <0>         0.0617
      5 H2          0.3631   -0.6195    2.0729 H         1 <0>         0.1086
      6 C4          1.3002   -1.9385    0.5936 C.3       1 <0>         0.0640
      7 C5          1.4150   -1.7035   -0.9273 C.3       1 <0>         0.0418
      8 H3          2.4576   -1.5399   -1.1996 H         1 <0>         0.1613
      9 N1          0.6167   -0.5036   -1.2464 N.4       1 <0>        -0.5037
     10 C6          0.8634   -2.9135   -1.6840 C.3       1 <0>         0.0626
     11 O1         -0.4610   -3.1970   -1.2283 O.3       1 <0>        -0.5507
     12 O2          0.2757   -2.8922    0.8816 O.3       1 <0>        -0.5178
     13 O3          2.0691    0.2880    1.2942 O.3       1 <0>        -0.5200
     14 O4          1.3220    2.0204    0.0003 O.3       1 <0>        -0.5505
     15 H4         -0.5459    1.8868   -0.8726 H         1 <0>         0.0694
     16 H5         -0.5289    1.8773    0.9072 H         1 <0>         0.0911
     17 H6          2.2558   -2.2612    1.0069 H         1 <0>         0.1056
     18 H7         -0.1060   -0.7407   -1.9094 H         1 <0>         0.4311
     19 H8          0.8413   -2.6951   -2.7517 H         1 <0>         0.0677
     20 H9          1.5026   -3.7776   -1.5030 H         1 <0>         0.0914
     21 H10        -0.8739   -3.9541   -1.6659 H         1 <0>         0.3982
     22 H11         0.1112   -3.0196    1.8260 H         1 <0>         0.3906
     23 H12         2.6696   -0.0063    1.9927 H         1 <0>         0.3927
     24 H13         1.3852    2.9853    0.0049 H         1 <0>         0.3987
     25 H14         1.2154    0.2077   -1.6384 H         1 <0>         0.4353
@<TRIPOS>BOND
     1    1    2 1
     2    1   14 1
     3    1   15 1
     4    1   16 1
     5    2    3 1
     6    2    9 1
     7    2    4 1
     8    4    5 1
     9    4    6 1
    10    4   13 1
    11    6    7 1
    12    6   12 1
    13    6   17 1
    14    7    8 1
    15    7    9 1
    16    7   10 1
    17    9   18 1
    18    9   25 1
    19   10   11 1
    20   10   19 1
    21   10   20 1
    22   11   21 1
    23   12   22 1
    24   13   23 1
    25   14   24 1
@<TRIPOS>MOLECULE
CHEMBL10437__1
   25    25     0     0     0
SMALL
USER_CHARGES

@<TRIPOS>ATOM
      1 C1         -0.0187    1.5258    0.0104 C.3       1 <0>         0.0632
      2 C2          0.0021   -0.0041    0.0020 C.3       1 <0>         0.0354
      3 H1         -1.0118   -0.3891    0.1115 H         1 <0>         0.1638
      4 C3          0.8881   -0.5234    1.1538 C.3       1 <0>         0.0580
      5 H2          0.2763   -0.8328    2.0013 H         1 <0>         0.1064
      6 C4          1.6050   -1.7445    0.5200 C.3       1 <0>         0.0664
      7 C5          1.8129   -1.2634   -0.9377 C.3       1 <0>         0.0461
      8 H3          2.6946   -0.6260   -1.0048 H         1 <0>         0.1644
      9 N1          0.5900   -0.4908   -1.2595 N.4       1 <0>        -0.5028
     10 C6          1.9498   -2.4613   -1.8796 C.3       1 <0>         0.0555
     11 O1          0.8318   -3.3341   -1.7059 O.3       1 <0>        -0.5825
     12 O2          2.8580   -1.9920    1.1610 O.3       1 <0>        -0.5368
     13 O3          1.8336    0.4713    1.5520 O.3       1 <0>        -0.5112
     14 O4          1.3220    2.0204    0.0003 O.3       1 <0>        -0.5486
     15 H4         -0.5459    1.8868   -0.8726 H         1 <0>         0.0687
     16 H5         -0.5289    1.8773    0.9072 H         1 <0>         0.0922
     17 H6          0.9702   -2.6300    0.5521 H         1 <0>         0.1116
     18 H7         -0.0728   -1.0833   -1.7367 H         1 <0>         0.4347
     19 H8          1.9803   -2.1107   -2.9112 H         1 <0>         0.0776
     20 H9          2.8698   -2.9995   -1.6515 H         1 <0>         0.1007
     21 H10         0.8523   -4.1171   -2.2729 H         1 <0>         0.4119
     22 H11         2.7836   -2.2023    2.1019 H         1 <0>         0.4018
     23 H12         2.4151    0.1949    2.2735 H         1 <0>         0.3898
     24 H13         1.3852    2.9853    0.0049 H         1 <0>         0.3982
     25 H14         0.8279    0.2934   -1.8481 H         1 <0>         0.4356
@<TRIPOS>BOND
     1    1    2 1
     2    1   14 1
     3    1   15 1
     4    1   16 1
     5    2    3 1
     6    2    9 1
     7    2    4 1
     8    4    5 1
     9    4    6 1
    10    4   13 1
    11    6    7 1
    12    6   12 1
    13    6   17 1
    14    7    8 1
    15    7    9 1
    16    7   10 1
    17    9   18 1
    18    9   25 1
    19   10   11 1
    20   10   19 1
    21   10   20 1
    22   11   21 1
    23   12   22 1
    24   13   23 1
    25   14   24 1
@<TRIPOS>MOLECULE
CHEMBL1083795
   56    56     0     0     0
SMALL
USER_CHARGES

@<TRIPOS>ATOM
      1 C1         -0.0187    1.5258    0.0104 C.3       1 <0>        -0.1555
      2 C2          0.0021   -0.0041    0.0020 C.3       1 <0>        -0.1263
      3 C3          0.7182   -0.4975   -1.2568 C.3       1 <0>        -0.1216
      4 C4          0.7390   -2.0273   -1.2652 C.3       1 <0>        -0.1217
      5 C5          1.4551   -2.5207   -2.5240 C.3       1 <0>        -0.1213
      6 C6          1.4758   -4.0506   -2.5324 C.3       1 <0>        -0.1217
      7 C7          2.1920   -4.5440   -3.7912 C.3       1 <0>        -0.1213
      8 C8          2.2127   -6.0738   -3.7996 C.3       1 <0>        -0.1178
      9 C9          2.9289   -6.5673   -5.0584 C.3       1 <0>        -0.1474
     10 C10         2.9496   -8.0971   -5.0668 C.3       1 <0>        -0.0135
     11 N1          3.6372   -8.5708   -6.2755 N.4       1 <0>        -0.5027
     12 C11         3.6571  -10.0397   -6.2835 C.3       1 <0>         0.0548
     13 C12         4.5026  -10.5447   -5.1126 C.3       1 <0>         0.1022
     14 H1          4.0723  -10.1923   -4.1752 H         1 <0>         0.0930
     15 C13         4.5233  -12.0745   -5.1210 C.3       1 <0>         0.0944
     16 H2          5.1257  -12.4343   -4.2869 H         1 <0>         0.0815
     17 C14         5.1273  -12.5692   -6.4369 C.3       1 <0>         0.0398
     18 C15         4.2819  -12.0641   -7.6078 C.3       1 <0>         0.0536
     19 H3          4.7121  -12.4165   -8.5452 H         1 <0>         0.0770
     20 C16         4.2611  -10.5343   -7.5994 C.3       1 <0>         0.1013
     21 H4          3.6588  -10.1745   -8.4336 H         1 <0>         0.0907
     22 O1          5.5955  -10.0391   -7.7269 O.3       1 <0>        -0.5406
     23 O2          2.9475  -12.5593   -7.4803 O.3       1 <0>        -0.5441
     24 O3          5.1467  -13.9980   -6.4448 O.3       1 <0>        -0.5607
     25 O4          3.1890  -12.5697   -4.9935 O.3       1 <0>        -0.5472
     26 O5          5.8370  -10.0495   -5.2401 O.3       1 <0>        -0.5407
     27 H5          1.0039    1.9031    0.0027 H         1 <0>         0.0538
     28 H6         -0.5459    1.8868   -0.8726 H         1 <0>         0.0538
     29 H7         -0.5289    1.8773    0.9072 H         1 <0>         0.0554
     30 H8          0.5293   -0.3651    0.8851 H         1 <0>         0.0606
     31 H9         -1.0205   -0.3814    0.0098 H         1 <0>         0.0607
     32 H10         0.1910   -0.1364   -2.1398 H         1 <0>         0.0611
     33 H11         1.7408   -0.1202   -1.2645 H         1 <0>         0.0610
     34 H12         1.2661   -2.3884   -0.3821 H         1 <0>         0.0614
     35 H13        -0.2836   -2.4046   -1.2575 H         1 <0>         0.0614
     36 H14         0.9279   -2.1597   -3.4071 H         1 <0>         0.0618
     37 H15         2.4777   -2.1435   -2.5317 H         1 <0>         0.0617
     38 H16         2.0030   -4.4117   -1.6494 H         1 <0>         0.0633
     39 H17         0.4533   -4.4279   -2.5247 H         1 <0>         0.0636
     40 H18         1.6648   -4.1829   -4.6743 H         1 <0>         0.0659
     41 H19         3.2146   -4.1667   -3.7990 H         1 <0>         0.0659
     42 H20         2.7399   -6.4349   -2.9166 H         1 <0>         0.0733
     43 H21         1.1901   -6.4511   -3.7919 H         1 <0>         0.0741
     44 H22         2.4017   -6.2062   -5.9415 H         1 <0>         0.0873
     45 H23         3.9515   -6.1900   -5.0662 H         1 <0>         0.0877
     46 H24         3.4768   -8.4582   -4.1838 H         1 <0>         0.1295
     47 H25         1.9270   -8.4744   -5.0591 H         1 <0>         0.1327
     48 H26         3.1492   -8.2366   -7.0929 H         1 <0>         0.4269
     49 H27         2.6393  -10.4174   -6.1863 H         1 <0>         0.1746
     50 H28         6.1451  -12.1915   -6.5342 H         1 <0>         0.0900
     51 H29         6.0410  -10.3140   -8.5400 H         1 <0>         0.4001
     52 H30         2.8846  -13.5243   -7.4782 H         1 <0>         0.3956
     53 H31         5.5177  -14.3819   -7.2510 H         1 <0>         0.3930
     54 H32         3.1260  -13.5347   -4.9915 H         1 <0>         0.3990
     55 H33         6.4304  -10.3307   -4.5303 H         1 <0>         0.4015
     56 H34         4.5838   -8.2216   -6.2826 H         1 <0>         0.4389
@<TRIPOS>BOND
     1    1    2 1
     2    1   27 1
     3    1   28 1
     4    1   29 1
     5    2    3 1
     6    2   30 1
     7    2   31 1
     8    3    4 1
     9    3   32 1
    10    3   33 1
    11    4    5 1
    12    4   34 1
    13    4   35 1
    14    5    6 1
    15    5   36 1
    16    5   37 1
    17    6    7 1
    18    6   38 1
    19    6   39 1
    20    7    8 1
    21    7   40 1
    22    7   41 1
    23    8    9 1
    24    8   42 1
    25    8   43 1
    26    9   10 1
    27    9   44 1
    28    9   45 1
    29   10   11 1
    30   10   46 1
    31   10   47 1
    32   11   12 1
    33   11   48 1
    34   11   56 1
    35   12   20 1
    36   12   13 1
    37   12   49 1
    38   13   14 1
    39   13   15 1
    40   13   26 1
    41   15   16 1
    42   15   17 1
    43   15   25 1
    44   17   18 1
    45   17   24 1
    46   17   50 1
    47   18   19 1
    48   18   20 1
    49   18   23 1
    50   20   21 1
    51   20   22 1
    52   22   51 1
    53   23   52 1
    54   24   53 1
    55   25   54 1
    56   26   55 1
@<TRIPOS>MOLECULE
CHEMBL27760
   72    74     0     0     0
SMALL
USER_CHARGES

@<TRIPOS>ATOM
      1 C1          0.8583    0.3804    4.0857 C.3       1 <0>         0.1128
      2 N1         -0.2542    0.8423    3.2519 N.pl3     1 <0>        -0.6886
      3 C2         -0.0282    1.8701    2.2327 C.3       1 <0>         0.1154
      4 C3         -1.5270    0.3041    3.4282 C.ar      1 <0>         0.2001
      5 C4         -2.4121    0.8856    4.3113 C.ar      1 <0>        -0.1338
      6 C5         -3.6858    0.3562    4.4942 C.ar      1 <0>        -0.0737
      7 C6         -4.0933   -0.7479    3.8092 C.ar      1 <0>        -0.1449
      8 C7         -3.2219   -1.3708    2.8997 C.ar      1 <0>         0.0376
      9 C8         -1.9245   -0.8379    2.7003 C.ar      1 <0>        -0.0832
     10 C9         -1.0571   -1.4584    1.7878 C.ar      1 <0>        -0.0264
     11 C10        -1.4741   -2.5589    1.1030 C.ar      1 <0>        -0.1552
     12 C11        -2.7521   -3.0804    1.2939 C.ar      1 <0>         0.0135
     13 C12        -3.6156   -2.5119    2.1792 C.ar      1 <0>        -0.6769
     14 S1         -5.2261   -3.1899    2.4053 S.o2      1 <0>         2.6954
     15 O1         -5.3387   -4.2796    1.5002 O.2       1 <0>        -0.9570
     16 O2         -5.4102   -3.3410    3.8062 O.2       1 <0>        -0.9504
     17 N2         -6.3137   -2.0455    1.9057 N.pl3     1 <0>        -1.1178
     18 C13        -6.3401   -1.6228    0.5032 C.3       1 <0>         0.1166
     19 C14        -7.6522   -0.8901    0.2160 C.3       1 <0>        -0.1275
     20 C15        -7.6797   -0.4487   -1.2487 C.3       1 <0>        -0.1198
     21 C16        -8.9918    0.2839   -1.5360 C.3       1 <0>        -0.1077
     22 C17        -9.0193    0.7253   -3.0007 C.3       1 <0>        -0.1410
     23 C18       -10.3117    1.4470   -3.2836 C.2       1 <0>         0.5183
     24 O3        -11.1301    1.5938   -2.4007 O.2       1 <0>        -0.5096
     25 N3        -10.5580    1.9293   -4.5178 N.am      1 <0>        -0.7597
     26 C19       -11.8143    2.6308   -4.7929 C.3       1 <0>         0.1004
     27 C20       -11.8419    3.0722   -6.2576 C.3       1 <0>         0.0266
     28 H1        -11.0670    3.8181   -6.4346 H         1 <0>         0.1605
     29 C21       -13.2259    3.6611   -6.6025 C.3       1 <0>         0.0678
     30 C22       -13.4771    3.1431   -8.0431 C.3       1 <0>         0.0602
     31 H2        -14.5445    3.0725   -8.2522 H         1 <0>         0.1144
     32 C23       -12.8284    1.7374   -7.9877 C.3       1 <0>         0.0367
     33 H3        -13.5151    1.0201   -7.5381 H         1 <0>         0.1678
     34 N4        -11.6275    1.9079   -7.1365 N.4       1 <0>        -0.5089
     35 C24       -12.4263    1.2806   -9.3914 C.3       1 <0>         0.0605
     36 O4        -11.6058    2.2795  -10.0006 O.3       1 <0>        -0.5506
     37 O5        -12.8232    3.9718   -9.0063 O.3       1 <0>        -0.5131
     38 O6        -13.1875    5.0894   -6.5787 O.3       1 <0>        -0.5372
     39 H4          1.7679    0.9113    3.8047 H         1 <0>         0.0706
     40 H5          0.6325    0.5763    5.1339 H         1 <0>         0.0450
     41 H6          1.0024   -0.6900    3.9389 H         1 <0>         0.0422
     42 H7          0.2414    1.3939    1.2901 H         1 <0>         0.0348
     43 H8         -0.9385    2.4541    2.0975 H         1 <0>         0.0552
     44 H9          0.7808    2.5270    2.5524 H         1 <0>         0.0630
     45 H10        -2.1132    1.7618    4.8675 H         1 <0>         0.1296
     46 H11        -4.3622    0.8285    5.1912 H         1 <0>         0.1325
     47 H12        -5.0856   -1.1447    3.9651 H         1 <0>         0.1306
     48 H13        -0.0640   -1.0647    1.6293 H         1 <0>         0.1352
     49 H14        -0.8046   -3.0345    0.4015 H         1 <0>         0.1353
     50 H15        -3.0589   -3.9540    0.7378 H         1 <0>         0.1452
     51 H16        -6.9333   -1.6549    2.5417 H         1 <0>         0.4199
     52 H17        -5.5009   -0.9548    0.3092 H         1 <0>         0.0657
     53 H18        -6.2642   -2.4983   -0.1416 H         1 <0>         0.0809
     54 H19        -8.4914   -1.5581    0.4100 H         1 <0>         0.0755
     55 H20        -7.7281   -0.0146    0.8608 H         1 <0>         0.0739
     56 H21        -6.8405    0.2193   -1.4427 H         1 <0>         0.0684
     57 H22        -7.6038   -1.3243   -1.8935 H         1 <0>         0.0692
     58 H23        -9.8310   -0.3841   -1.3420 H         1 <0>         0.0741
     59 H24        -9.0677    1.1595   -0.8912 H         1 <0>         0.0741
     60 H25        -8.1802    1.3933   -3.1947 H         1 <0>         0.1007
     61 H26        -8.9434   -0.1502   -3.6455 H         1 <0>         0.0990
     62 H27        -9.9034    1.8118   -5.2240 H         1 <0>         0.3976
     63 H28       -12.6535    1.9628   -4.5989 H         1 <0>         0.0964
     64 H29       -11.8903    3.5063   -4.1481 H         1 <0>         0.1183
     65 H30       -13.9866    3.2836   -5.9191 H         1 <0>         0.1091
     66 H31       -10.8170    2.0650   -7.7166 H         1 <0>         0.4421
     67 H32       -11.8705    0.3454   -9.3238 H         1 <0>         0.0716
     68 H33       -13.3215    1.1284   -9.9943 H         1 <0>         0.0944
     69 H34       -11.3131    2.0563  -10.8948 H         1 <0>         0.4012
     70 H35       -13.1306    4.8886   -9.0097 H         1 <0>         0.3938
     71 H36       -14.0329    5.5092   -6.7888 H         1 <0>         0.4060
     72 H37       -11.4873    1.0807   -6.5760 H         1 <0>         0.4276
@<TRIPOS>BOND
     1    1    2 1
     2    1   39 1
     3    1   40 1
     4    1   41 1
     5    2    3 1
     6    2    4 1
     7    3   42 1
     8    3   43 1
     9    3   44 1
    10    4    9 ar
    11    4    5 ar
    12    5    6 ar
    13    5   45 1
    14    6    7 ar
    15    6   46 1
    16    7    8 ar
    17    7   47 1
    18    8   13 ar
    19    8    9 ar
    20    9   10 ar
    21   10   11 ar
    22   10   48 1
    23   11   12 ar
    24   11   49 1
    25   12   13 ar
    26   12   50 1
    27   13   14 1
    28   14   15 2
    29   14   16 2
    30   14   17 1
    31   17   18 1
    32   17   51 1
    33   18   19 1
    34   18   52 1
    35   18   53 1
    36   19   20 1
    37   19   54 1
    38   19   55 1
    39   20   21 1
    40   20   56 1
    41   20   57 1
    42   21   22 1
    43   21   58 1
    44   21   59 1
    45   22   23 1
    46   22   60 1
    47   22   61 1
    48   23   24 2
    49   23   25 am
    50   25   26 1
    51   25   62 1
    52   26   27 1
    53   26   63 1
    54   26   64 1
    55   27   28 1
    56   27   34 1
    57   27   29 1
    58   29   30 1
    59   29   38 1
    60   29   65 1
    61   30   31 1
    62   30   32 1
    63   30   37 1
    64   32   33 1
    65   32   34 1
    66   32   35 1
    67   34   66 1
    68   34   72 1
    69   35   36 1
    70   35   67 1
    71   35   68 1
    72   36   69 1
    73   37   70 1
    74   38   71 1
@<TRIPOS>MOLECULE
CHEMBL27760__1
   71    73     0     0     0
SMALL
USER_CHARGES

@<TRIPOS>ATOM
      1 C1         -4.0844    0.3311    0.8656 C.3       1 <0>         0.1140
      2 N1         -3.2546    0.8208   -0.2379 N.pl3     1 <0>        -0.6882
      3 C2         -2.2437    1.8523    0.0076 C.3       1 <0>         0.1150
      4 C3         -3.4268    0.3056   -1.5208 C.ar      1 <0>         0.1975
      5 C4         -4.3146    0.8967   -2.3946 C.ar      1 <0>        -0.1333
      6 C5         -4.4936    0.3902   -3.6781 C.ar      1 <0>        -0.0753
      7 C6         -3.7997   -0.7004   -4.1067 C.ar      1 <0>        -0.1425
      8 C7         -2.8851   -1.3324   -3.2474 C.ar      1 <0>         0.0376
      9 C8         -2.6897   -0.8228   -1.9400 C.ar      1 <0>        -0.0830
     10 C9         -1.7721   -1.4523   -1.0847 C.ar      1 <0>        -0.0285
     11 C10        -1.0786   -2.5391   -1.5225 C.ar      1 <0>        -0.1539
     12 C11        -1.2655   -3.0377   -2.8103 C.ar      1 <0>         0.0132
     13 C12        -2.1555   -2.4600   -3.6627 C.ar      1 <0>        -0.6754
     14 S1         -2.3764   -3.1090   -5.2859 S.o2      1 <0>         2.6955
     15 O1         -1.4626   -4.1890   -5.4192 O.2       1 <0>        -0.9566
     16 O2         -3.7760   -3.2678   -5.4728 O.2       1 <0>        -0.9536
     17 N2         -1.8862   -1.9400   -6.3515 N.pl3     1 <0>        -1.1166
     18 C13        -0.4872   -1.5056   -6.3698 C.3       1 <0>         0.1160
     19 C14        -0.2061   -0.7458   -7.6677 C.3       1 <0>        -0.1264
     20 C15         1.2550   -0.2922   -7.6869 C.3       1 <0>        -0.1197
     21 C16         1.5361    0.4677   -8.9848 C.3       1 <0>        -0.1037
     22 C17         2.9972    0.9213   -9.0040 C.3       1 <0>        -0.1406
     23 C18         3.2740    1.6698  -10.2823 C.2       1 <0>         0.5110
     24 O3          2.3898    1.8250  -11.0978 O.2       1 <0>        -0.5441
     25 N3          4.5043    2.1665  -10.5194 N.am      1 <0>        -0.7198
     26 C19         4.7734    2.8941  -11.7622 C.3       1 <0>         0.1390
     27 C20         6.2345    3.3477  -11.7813 C.3       1 <0>         0.0732
     28 H1          6.4116    4.0614  -10.9767 H         1 <0>         0.0837
     29 C21         6.5647    3.9975  -13.1416 C.3       1 <0>         0.0618
     30 C22         8.0073    3.5019  -13.4247 C.3       1 <0>         0.0429
     31 H2          8.2089    3.4783  -14.4956 H         1 <0>         0.0779
     32 C23         7.9672    2.0696  -12.8359 C.3       1 <0>         0.0912
     33 H3          7.5180    1.3786  -13.5492 H         1 <0>         0.1102
     34 N4          7.1237    2.1823  -11.6228 N.3       1 <0>        -0.6568
     35 C24         9.3773    1.6072  -12.4636 C.3       1 <0>         0.0804
     36 O4          9.3337    0.2454  -12.0325 O.3       1 <0>        -0.5671
     37 O5          8.9690    4.3096  -12.7431 O.3       1 <0>        -0.5486
     38 O6          6.5304    5.4227  -13.0423 O.3       1 <0>        -0.5513
     39 H4         -4.9861    0.9391    0.9397 H         1 <0>         0.0388
     40 H5         -4.3604   -0.7069    0.6798 H         1 <0>         0.0556
     41 H6         -3.5243    0.3967    1.7983 H         1 <0>         0.0609
     42 H7         -1.2971    1.3787    0.2680 H         1 <0>         0.0354
     43 H8         -2.1134    2.4546   -0.8915 H         1 <0>         0.0564
     44 H9         -2.5684    2.4911    0.8289 H         1 <0>         0.0617
     45 H10        -4.8779    1.7625   -2.0790 H         1 <0>         0.1286
     46 H11        -5.1945    0.8696   -4.3454 H         1 <0>         0.1322
     47 H12        -3.9526   -1.0795   -5.1063 H         1 <0>         0.1313
     48 H13        -1.6166   -1.0763   -0.0842 H         1 <0>         0.1343
     49 H14        -0.3731   -3.0217   -0.8623 H         1 <0>         0.1349
     50 H15        -0.7024   -3.9007   -3.1336 H         1 <0>         0.1456
     51 H16        -2.5254   -1.5429   -6.9635 H         1 <0>         0.4197
     52 H17        -0.2985   -0.8522   -5.5181 H         1 <0>         0.0654
     53 H18         0.1646   -2.3772   -6.3106 H         1 <0>         0.0813
     54 H19        -0.3949   -1.3992   -8.5195 H         1 <0>         0.0749
     55 H20        -0.8580    0.1258   -7.7270 H         1 <0>         0.0725
     56 H21         1.4437    0.3613   -6.8351 H         1 <0>         0.0662
     57 H22         1.9068   -1.1637   -7.6277 H         1 <0>         0.0685
     58 H23         1.3473   -0.1857   -9.8365 H         1 <0>         0.0716
     59 H24         0.8842    1.3393   -9.0440 H         1 <0>         0.0702
     60 H25         3.1859    1.5748   -8.1522 H         1 <0>         0.0920
     61 H26         3.6490    0.0497   -8.9447 H         1 <0>         0.0949
     62 H27         5.2115    2.0423   -9.8672 H         1 <0>         0.4023
     63 H28         4.5847    2.2407  -12.6139 H         1 <0>         0.0687
     64 H29         4.1216    3.7657  -11.8214 H         1 <0>         0.0704
     65 H30         5.8785    3.6472  -13.9127 H         1 <0>         0.0838
     66 H31         7.6903    2.2701  -10.7926 H         1 <0>         0.3489
     67 H32        10.0291    1.6923  -13.3331 H         1 <0>         0.0533
     68 H33         9.7633    2.2312  -11.6576 H         1 <0>         0.0563
     69 H34        10.1948   -0.1150  -11.7801 H         1 <0>         0.3815
     70 H35         8.9633    5.2387  -13.0113 H         1 <0>         0.3838
     71 H36         6.7311    5.8796  -13.8706 H         1 <0>         0.3829
@<TRIPOS>BOND
     1    1    2 1
     2    1   39 1
     3    1   40 1
     4    1   41 1
     5    2    3 1
     6    2    4 1
     7    3   42 1
     8    3   43 1
     9    3   44 1
    10    4    9 ar
    11    4    5 ar
    12    5    6 ar
    13    5   45 1
    14    6    7 ar
    15    6   46 1
    16    7    8 ar
    17    7   47 1
    18    8   13 ar
    19    8    9 ar
    20    9   10 ar
    21   10   11 ar
    22   10   48 1
    23   11   12 ar
    24   11   49 1
    25   12   13 ar
    26   12   50 1
    27   13   14 1
    28   14   15 2
    29   14   16 2
    30   14   17 1
    31   17   18 1
    32   17   51 1
    33   18   19 1
    34   18   52 1
    35   18   53 1
    36   19   20 1
    37   19   54 1
    38   19   55 1
    39   20   21 1
    40   20   56 1
    41   20   57 1
    42   21   22 1
    43   21   58 1
    44   21   59 1
    45   22   23 1
    46   22   60 1
    47   22   61 1
    48   23   24 2
    49   23   25 am
    50   25   26 1
    51   25   62 1
    52   26   27 1
    53   26   63 1
    54   26   64 1
    55   27   28 1
    56   27   34 1
    57   27   29 1
    58   29   30 1
    59   29   38 1
    60   29   65 1
    61   30   31 1
    62   30   32 1
    63   30   37 1
    64   32   33 1
    65   32   34 1
    66   32   35 1
    67   34   66 1
    68   35   36 1
    69   35   67 1
    70   35   68 1
    71   36   69 1
    72   37   70 1
    73   38   71 1
@<TRIPOS>MOLECULE
CHEMBL27760__2
   72    74     0     0     0
SMALL
USER_CHARGES

@<TRIPOS>ATOM
      1 C1          0.8583    0.3804    4.0857 C.3       1 <0>         0.1128
      2 N1         -0.2542    0.8423    3.2519 N.pl3     1 <0>        -0.6886
      3 C2         -0.0282    1.8701    2.2327 C.3       1 <0>         0.1154
      4 C3         -1.5270    0.3041    3.4282 C.ar      1 <0>         0.2000
      5 C4         -2.4121    0.8856    4.3113 C.ar      1 <0>        -0.1338
      6 C5         -3.6858    0.3562    4.4942 C.ar      1 <0>        -0.0738
      7 C6         -4.0933   -0.7479    3.8092 C.ar      1 <0>        -0.1448
      8 C7         -3.2219   -1.3708    2.8997 C.ar      1 <0>         0.0376
      9 C8         -1.9245   -0.8379    2.7003 C.ar      1 <0>        -0.0832
     10 C9         -1.0571   -1.4584    1.7878 C.ar      1 <0>        -0.0265
     11 C10        -1.4741   -2.5589    1.1030 C.ar      1 <0>        -0.1552
     12 C11        -2.7521   -3.0804    1.2939 C.ar      1 <0>         0.0135
     13 C12        -3.6156   -2.5119    2.1792 C.ar      1 <0>        -0.6769
     14 S1         -5.2261   -3.1899    2.4053 S.o2      1 <0>         2.6954
     15 O1         -5.3387   -4.2796    1.5002 O.2       1 <0>        -0.9569
     16 O2         -5.4102   -3.3410    3.8062 O.2       1 <0>        -0.9504
     17 N2         -6.3137   -2.0455    1.9057 N.pl3     1 <0>        -1.1178
     18 C13        -6.3401   -1.6228    0.5032 C.3       1 <0>         0.1166
     19 C14        -7.6522   -0.8901    0.2160 C.3       1 <0>        -0.1275
     20 C15        -7.6797   -0.4487   -1.2487 C.3       1 <0>        -0.1197
     21 C16        -8.9918    0.2839   -1.5360 C.3       1 <0>        -0.1077
     22 C17        -9.0193    0.7253   -3.0007 C.3       1 <0>        -0.1410
     23 C18       -10.3117    1.4470   -3.2836 C.2       1 <0>         0.5173
     24 O3        -11.1301    1.5938   -2.4007 O.2       1 <0>        -0.5086
     25 N3        -10.5580    1.9293   -4.5178 N.am      1 <0>        -0.7621
     26 C19       -11.8143    2.6308   -4.7929 C.3       1 <0>         0.1046
     27 C20       -11.8419    3.0722   -6.2576 C.3       1 <0>         0.0312
     28 H1        -11.0670    3.8181   -6.4346 H         1 <0>         0.1593
     29 C21       -13.2259    3.6611   -6.6025 C.3       1 <0>         0.0653
     30 C22       -13.4771    3.1431   -8.0431 C.3       1 <0>         0.0645
     31 H2        -14.5445    3.0725   -8.2522 H         1 <0>         0.1141
     32 C23       -12.8284    1.7374   -7.9877 C.3       1 <0>         0.0422
     33 H3        -13.5151    1.0201   -7.5381 H         1 <0>         0.1669
     34 N4        -11.6275    1.9079   -7.1365 N.4       1 <0>        -0.5116
     35 C24       -12.4263    1.2806   -9.3914 C.3       1 <0>         0.0597
     36 O4        -11.6058    2.2795  -10.0006 O.3       1 <0>        -0.5519
     37 O5        -12.8232    3.9718   -9.0063 O.3       1 <0>        -0.5180
     38 O6        -14.2231    3.1662   -5.7066 O.3       1 <0>        -0.5461
     39 H4          1.7679    0.9113    3.8047 H         1 <0>         0.0706
     40 H5          0.6325    0.5763    5.1339 H         1 <0>         0.0450
     41 H6          1.0024   -0.6900    3.9389 H         1 <0>         0.0422
     42 H7          0.2414    1.3939    1.2901 H         1 <0>         0.0347
     43 H8         -0.9385    2.4541    2.0975 H         1 <0>         0.0552
     44 H9          0.7808    2.5270    2.5524 H         1 <0>         0.0630
     45 H10        -2.1132    1.7618    4.8675 H         1 <0>         0.1295
     46 H11        -4.3622    0.8285    5.1912 H         1 <0>         0.1325
     47 H12        -5.0856   -1.1447    3.9651 H         1 <0>         0.1306
     48 H13        -0.0640   -1.0647    1.6293 H         1 <0>         0.1351
     49 H14        -0.8046   -3.0345    0.4015 H         1 <0>         0.1353
     50 H15        -3.0589   -3.9540    0.7378 H         1 <0>         0.1452
     51 H16        -6.9333   -1.6549    2.5417 H         1 <0>         0.4199
     52 H17        -5.5009   -0.9548    0.3092 H         1 <0>         0.0656
     53 H18        -6.2642   -2.4983   -0.1416 H         1 <0>         0.0809
     54 H19        -8.4914   -1.5581    0.4100 H         1 <0>         0.0756
     55 H20        -7.7281   -0.0146    0.8608 H         1 <0>         0.0738
     56 H21        -6.8405    0.2193   -1.4427 H         1 <0>         0.0681
     57 H22        -7.6038   -1.3243   -1.8935 H         1 <0>         0.0690
     58 H23        -9.8310   -0.3841   -1.3420 H         1 <0>         0.0741
     59 H24        -9.0677    1.1595   -0.8912 H         1 <0>         0.0739
     60 H25        -8.1802    1.3933   -3.1947 H         1 <0>         0.0998
     61 H26        -8.9434   -0.1502   -3.6455 H         1 <0>         0.0982
     62 H27        -9.9034    1.8118   -5.2240 H         1 <0>         0.3951
     63 H28       -12.6535    1.9628   -4.5989 H         1 <0>         0.1084
     64 H29       -11.8903    3.5063   -4.1481 H         1 <0>         0.1135
     65 H30       -13.1966    4.7506   -6.5844 H         1 <0>         0.1164
     66 H31       -10.8170    2.0650   -7.7166 H         1 <0>         0.4392
     67 H32       -11.8705    0.3454   -9.3238 H         1 <0>         0.0710
     68 H33       -13.3215    1.1284   -9.9943 H         1 <0>         0.0937
     69 H34       -11.3131    2.0563  -10.8948 H         1 <0>         0.4011
     70 H35       -13.1306    4.8886   -9.0097 H         1 <0>         0.3943
     71 H36       -15.1116    3.5060   -5.8804 H         1 <0>         0.4075
     72 H37       -11.4873    1.0807   -6.5760 H         1 <0>         0.4273
@<TRIPOS>BOND
     1    1    2 1
     2    1   39 1
     3    1   40 1
     4    1   41 1
     5    2    3 1
     6    2    4 1
     7    3   42 1
     8    3   43 1
     9    3   44 1
    10    4    9 ar
    11    4    5 ar
    12    5    6 ar
    13    5   45 1
    14    6    7 ar
    15    6   46 1
    16    7    8 ar
    17    7   47 1
    18    8   13 ar
    19    8    9 ar
    20    9   10 ar
    21   10   11 ar
    22   10   48 1
    23   11   12 ar
    24   11   49 1
    25   12   13 ar
    26   12   50 1
    27   13   14 1
    28   14   15 2
    29   14   16 2
    30   14   17 1
    31   17   18 1
    32   17   51 1
    33   18   19 1
    34   18   52 1
    35   18   53 1
    36   19   20 1
    37   19   54 1
    38   19   55 1
    39   20   21 1
    40   20   56 1
    41   20   57 1
    42   21   22 1
    43   21   58 1
    44   21   59 1
    45   22   23 1
    46   22   60 1
    47   22   61 1
    48   23   24 2
    49   23   25 am
    50   25   26 1
    51   25   62 1
    52   26   27 1
    53   26   63 1
    54   26   64 1
    55   27   28 1
    56   27   34 1
    57   27   29 1
    58   29   30 1
    59   29   38 1
    60   29   65 1
    61   30   31 1
    62   30   32 1
    63   30   37 1
    64   32   33 1
    65   32   34 1
    66   32   35 1
    67   34   66 1
    68   34   72 1
    69   35   36 1
    70   35   67 1
    71   35   68 1
    72   36   69 1
    73   37   70 1
    74   38   71 1
@<TRIPOS>MOLECULE
CHEMBL27760__3
   71    73     0     0     0
SMALL
USER_CHARGES

@<TRIPOS>ATOM
      1 C1         -4.0844    0.3311    0.8656 C.3       1 <0>         0.1140
      2 N1         -3.2546    0.8208   -0.2379 N.pl3     1 <0>        -0.6881
      3 C2         -2.2437    1.8523    0.0076 C.3       1 <0>         0.1150
      4 C3         -3.4268    0.3056   -1.5208 C.ar      1 <0>         0.1974
      5 C4         -4.3146    0.8967   -2.3946 C.ar      1 <0>        -0.1333
      6 C5         -4.4936    0.3902   -3.6781 C.ar      1 <0>        -0.0753
      7 C6         -3.7997   -0.7004   -4.1067 C.ar      1 <0>        -0.1424
      8 C7         -2.8851   -1.3324   -3.2474 C.ar      1 <0>         0.0377
      9 C8         -2.6897   -0.8228   -1.9400 C.ar      1 <0>        -0.0830
     10 C9         -1.7721   -1.4523   -1.0847 C.ar      1 <0>        -0.0286
     11 C10        -1.0786   -2.5391   -1.5225 C.ar      1 <0>        -0.1539
     12 C11        -1.2655   -3.0377   -2.8103 C.ar      1 <0>         0.0132
     13 C12        -2.1555   -2.4600   -3.6627 C.ar      1 <0>        -0.6754
     14 S1         -2.3764   -3.1090   -5.2859 S.o2      1 <0>         2.6954
     15 O1         -1.4626   -4.1890   -5.4192 O.2       1 <0>        -0.9566
     16 O2         -3.7760   -3.2678   -5.4728 O.2       1 <0>        -0.9536
     17 N2         -1.8862   -1.9400   -6.3515 N.pl3     1 <0>        -1.1166
     18 C13        -0.4872   -1.5056   -6.3698 C.3       1 <0>         0.1161
     19 C14        -0.2061   -0.7458   -7.6677 C.3       1 <0>        -0.1264
     20 C15         1.2550   -0.2922   -7.6869 C.3       1 <0>        -0.1196
     21 C16         1.5361    0.4677   -8.9848 C.3       1 <0>        -0.1037
     22 C17         2.9972    0.9213   -9.0040 C.3       1 <0>        -0.1406
     23 C18         3.2740    1.6698  -10.2823 C.2       1 <0>         0.5098
     24 O3          2.3898    1.8250  -11.0978 O.2       1 <0>        -0.5432
     25 N3          4.5043    2.1665  -10.5194 N.am      1 <0>        -0.7224
     26 C19         4.7734    2.8941  -11.7622 C.3       1 <0>         0.1445
     27 C20         6.2345    3.3477  -11.7813 C.3       1 <0>         0.0752
     28 H1          6.4116    4.0614  -10.9767 H         1 <0>         0.0794
     29 C21         6.5647    3.9975  -13.1416 C.3       1 <0>         0.0646
     30 C22         8.0073    3.5019  -13.4247 C.3       1 <0>         0.0427
     31 H2          8.2089    3.4783  -14.4956 H         1 <0>         0.0789
     32 C23         7.9672    2.0696  -12.8359 C.3       1 <0>         0.0983
     33 H3          7.5180    1.3786  -13.5492 H         1 <0>         0.1105
     34 N4          7.1237    2.1823  -11.6228 N.3       1 <0>        -0.6591
     35 C24         9.3773    1.6072  -12.4636 C.3       1 <0>         0.0788
     36 O4          9.3337    0.2454  -12.0325 O.3       1 <0>        -0.5664
     37 O5          8.9690    4.3096  -12.7431 O.3       1 <0>        -0.5535
     38 O6          5.6651    3.5383  -14.1525 O.3       1 <0>        -0.5419
     39 H4         -4.9861    0.9391    0.9397 H         1 <0>         0.0388
     40 H5         -4.3604   -0.7069    0.6798 H         1 <0>         0.0556
     41 H6         -3.5243    0.3967    1.7983 H         1 <0>         0.0608
     42 H7         -1.2971    1.3787    0.2680 H         1 <0>         0.0354
     43 H8         -2.1134    2.4546   -0.8915 H         1 <0>         0.0564
     44 H9         -2.5684    2.4911    0.8289 H         1 <0>         0.0616
     45 H10        -4.8779    1.7625   -2.0790 H         1 <0>         0.1286
     46 H11        -5.1945    0.8696   -4.3454 H         1 <0>         0.1322
     47 H12        -3.9526   -1.0795   -5.1063 H         1 <0>         0.1313
     48 H13        -1.6166   -1.0763   -0.0842 H         1 <0>         0.1343
     49 H14        -0.3731   -3.0217   -0.8623 H         1 <0>         0.1349
     50 H15        -0.7024   -3.9007   -3.1336 H         1 <0>         0.1456
     51 H16        -2.5254   -1.5429   -6.9635 H         1 <0>         0.4197
     52 H17        -0.2985   -0.8522   -5.5181 H         1 <0>         0.0653
     53 H18         0.1646   -2.3772   -6.3106 H         1 <0>         0.0813
     54 H19        -0.3949   -1.3992   -8.5195 H         1 <0>         0.0750
     55 H20        -0.8580    0.1258   -7.7270 H         1 <0>         0.0724
     56 H21         1.4437    0.3613   -6.8351 H         1 <0>         0.0659
     57 H22         1.9068   -1.1637   -7.6277 H         1 <0>         0.0683
     58 H23         1.3473   -0.1857   -9.8365 H         1 <0>         0.0716
     59 H24         0.8842    1.3393   -9.0440 H         1 <0>         0.0700
     60 H25         3.1859    1.5748   -8.1522 H         1 <0>         0.0909
     61 H26         3.6490    0.0497   -8.9447 H         1 <0>         0.0941
     62 H27         5.2115    2.0423   -9.8672 H         1 <0>         0.3998
     63 H28         4.5847    2.2407  -12.6139 H         1 <0>         0.0822
     64 H29         4.1216    3.7657  -11.8214 H         1 <0>         0.0648
     65 H30         6.5386    5.0846  -13.0658 H         1 <0>         0.0760
     66 H31         7.6903    2.2701  -10.7926 H         1 <0>         0.3453
     67 H32        10.0291    1.6923  -13.3331 H         1 <0>         0.0522
     68 H33         9.7633    2.2312  -11.6576 H         1 <0>         0.0550
     69 H34        10.1948   -0.1150  -11.7801 H         1 <0>         0.3807
     70 H35         8.9633    5.2387  -13.0113 H         1 <0>         0.3837
     71 H36         5.8298    3.9169  -15.0269 H         1 <0>         0.3821
@<TRIPOS>BOND
     1    1    2 1
     2    1   39 1
     3    1   40 1
     4    1   41 1
     5    2    3 1
     6    2    4 1
     7    3   42 1
     8    3   43 1
     9    3   44 1
    10    4    9 ar
    11    4    5 ar
    12    5    6 ar
    13    5   45 1
    14    6    7 ar
    15    6   46 1
    16    7    8 ar
    17    7   47 1
    18    8   13 ar
    19    8    9 ar
    20    9   10 ar
    21   10   11 ar
    22   10   48 1
    23   11   12 ar
    24   11   49 1
    25   12   13 ar
    26   12   50 1
    27   13   14 1
    28   14   15 2
    29   14   16 2
    30   14   17 1
    31   17   18 1
    32   17   51 1
    33   18   19 1
    34   18   52 1
    35   18   53 1
    36   19   20 1
    37   19   54 1
    38   19   55 1
    39   20   21 1
    40   20   56 1
    41   20   57 1
    42   21   22 1
    43   21   58 1
    44   21   59 1
    45   22   23 1
    46   22   60 1
    47   22   61 1
    48   23   24 2
    49   23   25 am
    50   25   26 1
    51   25   62 1
    52   26   27 1
    53   26   63 1
    54   26   64 1
    55   27   28 1
    56   27   34 1
    57   27   29 1
    58   29   30 1
    59   29   38 1
    60   29   65 1
    61   30   31 1
    62   30   32 1
    63   30   37 1
    64   32   33 1
    65   32   34 1
    66   32   35 1
    67   34   66 1
    68   35   36 1
    69   35   67 1
    70   35   68 1
    71   36   69 1
    72   37   70 1
    73   38   71 1
@<TRIPOS>MOLECULE
CHEMBL27943
   38    39     0     0     0
SMALL
USER_CHARGES

@<TRIPOS>ATOM
      1 C1         -1.4441    1.6056    0.1428 C.3       1 <0>         0.1141
      2 N1         -1.2143    0.1587    0.1416 N.pl3     1 <0>        -0.6880
      3 C2         -1.2535   -0.5902    1.4001 C.3       1 <0>         0.1149
      4 C3         -0.9585   -0.5050   -1.0563 C.ar      1 <0>         0.1963
      5 C4          0.3364   -0.6562   -1.5051 C.ar      1 <0>        -0.1323
      6 C5          0.6025   -1.3179   -2.6998 C.ar      1 <0>        -0.0748
      7 C6         -0.4047   -1.8329   -3.4578 C.ar      1 <0>        -0.1394
      8 C7         -1.7385   -1.7004   -3.0362 C.ar      1 <0>         0.0377
      9 C8         -2.0221   -1.0338   -1.8186 C.ar      1 <0>        -0.0830
     10 C9         -3.3546   -0.9067   -1.3964 C.ar      1 <0>        -0.0279
     11 C10        -4.3556   -1.4289   -2.1575 C.ar      1 <0>        -0.1549
     12 C11        -4.0774   -2.0900   -3.3522 C.ar      1 <0>         0.0122
     13 C12        -2.7984   -2.2217   -3.7985 C.ar      1 <0>        -0.6759
     14 S1         -2.4709   -3.0601   -5.3133 S.o2      1 <0>         2.6960
     15 O1         -3.7237   -3.5189   -5.8025 O.2       1 <0>        -0.9582
     16 O2         -1.6215   -2.2106   -6.0723 O.2       1 <0>        -0.9525
     17 N2         -1.5841   -4.4091   -4.9445 N.pl3     1 <0>        -1.1116
     18 C13        -2.1686   -5.4658   -4.1151 C.3       1 <0>         0.1179
     19 C14        -1.3354   -6.7417   -4.2526 C.3       1 <0>         0.0687
     20 O3         -0.0300   -6.5183   -3.7158 O.3       1 <0>        -0.5713
     21 H1         -0.4938    2.1243    0.2696 H         1 <0>         0.0387
     22 H2         -1.8966    1.9024   -0.8034 H         1 <0>         0.0555
     23 H3         -2.1128    1.8666    0.9631 H         1 <0>         0.0607
     24 H4         -2.2704   -0.9358    1.5858 H         1 <0>         0.0353
     25 H5         -0.5846   -1.4483    1.3333 H         1 <0>         0.0565
     26 H6         -0.9345    0.0563    2.2177 H         1 <0>         0.0617
     27 H7          1.1534   -0.2563   -0.9229 H         1 <0>         0.1287
     28 H8          1.6248   -1.4245   -3.0317 H         1 <0>         0.1321
     29 H9         -0.1786   -2.3427   -4.3827 H         1 <0>         0.1312
     30 H10        -3.5848   -0.3974   -0.4723 H         1 <0>         0.1344
     31 H11        -5.3801   -1.3296   -1.8303 H         1 <0>         0.1349
     32 H12        -4.8895   -2.4959   -3.9372 H         1 <0>         0.1455
     33 H13        -0.6776   -4.4995   -5.2776 H         1 <0>         0.4232
     34 H14        -2.1760   -5.1473   -3.0727 H         1 <0>         0.0733
     35 H15        -3.1897   -5.6616   -4.4424 H         1 <0>         0.0946
     36 H16        -1.8189   -7.5519   -3.7070 H         1 <0>         0.0634
     37 H17        -1.2540   -7.0107   -5.3058 H         1 <0>         0.0579
     38 H18         0.5542   -7.2870   -3.7696 H         1 <0>         0.3842
@<TRIPOS>BOND
     1    1    2 1
     2    1   21 1
     3    1   22 1
     4    1   23 1
     5    2    3 1
     6    2    4 1
     7    3   24 1
     8    3   25 1
     9    3   26 1
    10    4    9 ar
    11    4    5 ar
    12    5    6 ar
    13    5   27 1
    14    6    7 ar
    15    6   28 1
    16    7    8 ar
    17    7   29 1
    18    8   13 ar
    19    8    9 ar
    20    9   10 ar
    21   10   11 ar
    22   10   30 1
    23   11   12 ar
    24   11   31 1
    25   12   13 ar
    26   12   32 1
    27   13   14 1
    28   14   15 2
    29   14   16 2
    30   14   17 1
    31   17   18 1
    32   17   33 1
    33   18   19 1
    34   18   34 1
    35   18   35 1
    36   19   20 1
    37   19   36 1
    38   19   37 1
    39   20   38 1
@<TRIPOS>MOLECULE
CHEMBL354193
   44    44     0     0     0
SMALL
USER_CHARGES

@<TRIPOS>ATOM
      1 C1         -0.0187    1.5258    0.0104 C.3       1 <0>        -0.1573
      2 C2          0.0021   -0.0041    0.0020 C.3       1 <0>        -0.1266
      3 C3          0.7182   -0.4975   -1.2568 C.3       1 <0>        -0.1217
      4 C4          0.7390   -2.0273   -1.2652 C.3       1 <0>        -0.1185
      5 C5          1.4551   -2.5207   -2.5240 C.3       1 <0>        -0.1473
      6 C6          1.4758   -4.0506   -2.5324 C.3       1 <0>        -0.0144
      7 N1          2.1634   -4.5243   -3.7410 N.4       1 <0>        -0.5007
      8 C7          2.1834   -5.9932   -3.7491 C.3       1 <0>         0.0873
      9 C8          2.9992   -6.4860   -2.5900 C.2       1 <0>        -0.1882
     10 C9          3.8504   -7.4584   -2.6636 C.2       1 <0>        -0.0813
     11 C10         4.1481   -8.2219   -3.9207 C.3       1 <0>         0.1053
     12 C11         3.0399   -7.9936   -4.9510 C.3       1 <0>         0.0922
     13 C12         2.7878   -6.4850   -5.0661 C.3       1 <0>         0.0940
     14 O1          4.0231   -5.8092   -5.3096 O.3       1 <0>        -0.5620
     15 O2          1.8442   -8.6492   -4.5236 O.3       1 <0>        -0.5543
     16 O3          4.2343   -9.6161   -3.6190 O.3       1 <0>        -0.5540
     17 C13         4.5888   -7.8476   -1.4089 C.3       1 <0>         0.0944
     18 O4          4.1696   -7.0095   -0.3301 O.3       1 <0>        -0.5731
     19 H1          1.0039    1.9031    0.0027 H         1 <0>         0.0551
     20 H2         -0.5459    1.8868   -0.8726 H         1 <0>         0.0552
     21 H3         -0.5289    1.8773    0.9072 H         1 <0>         0.0586
     22 H4          0.5293   -0.3651    0.8851 H         1 <0>         0.0633
     23 H5         -1.0205   -0.3814    0.0098 H         1 <0>         0.0633
     24 H6          0.1910   -0.1364   -2.1398 H         1 <0>         0.0658
     25 H7          1.7408   -0.1202   -1.2645 H         1 <0>         0.0658
     26 H8          1.2661   -2.3884   -0.3821 H         1 <0>         0.0740
     27 H9         -0.2836   -2.4046   -1.2575 H         1 <0>         0.0739
     28 H10         0.9279   -2.1597   -3.4071 H         1 <0>         0.0867
     29 H11         2.4777   -2.1435   -2.5317 H         1 <0>         0.0868
     30 H12         2.0030   -4.4117   -1.6494 H         1 <0>         0.1338
     31 H13         0.4533   -4.4279   -2.5247 H         1 <0>         0.1317
     32 H14         1.6754   -4.1901   -4.5585 H         1 <0>         0.4272
     33 H15         1.1643   -6.3688   -3.6567 H         1 <0>         0.1625
     34 H16         2.8683   -5.9987   -1.6351 H         1 <0>         0.1491
     35 H17         5.0991   -7.8839   -4.3322 H         1 <0>         0.0918
     36 H18         3.3518   -8.3877   -5.9182 H         1 <0>         0.0908
     37 H19         2.0931   -6.2908   -5.8832 H         1 <0>         0.1032
     38 H20         4.4610   -6.0738   -6.1302 H         1 <0>         0.4108
     39 H21         1.9375   -9.6055   -4.4145 H         1 <0>         0.4062
     40 H22         4.9244   -9.8380   -2.9790 H         1 <0>         0.3930
     41 H23         4.3707   -8.8878   -1.1668 H         1 <0>         0.0746
     42 H24         5.6608   -7.7283   -1.5663 H         1 <0>         0.0719
     43 H25         4.6049   -7.2040    0.5112 H         1 <0>         0.3977
     44 H26         3.1100   -4.1751   -3.7482 H         1 <0>         0.4334
@<TRIPOS>BOND
     1    1    2 1
     2    1   19 1
     3    1   20 1
     4    1   21 1
     5    2    3 1
     6    2   22 1
     7    2   23 1
     8    3    4 1
     9    3   24 1
    10    3   25 1
    11    4    5 1
    12    4   26 1
    13    4   27 1
    14    5    6 1
    15    5   28 1
    16    5   29 1
    17    6    7 1
    18    6   30 1
    19    6   31 1
    20    7    8 1
    21    7   32 1
    22    7   44 1
    23    8   13 1
    24    8    9 1
    25    8   33 1
    26    9   10 2
    27    9   34 1
    28   10   11 1
    29   10   17 1
    30   11   12 1
    31   11   16 1
    32   11   35 1
    33   12   13 1
    34   12   15 1
    35   12   36 1
    36   13   14 1
    37   13   37 1
    38   14   38 1
    39   15   39 1
    40   16   40 1
    41   17   18 1
    42   17   41 1
    43   17   42 1
    44   18   43 1
@<TRIPOS>MOLECULE
CHEMBL354193__1
   44    44     0     0     0
SMALL
USER_CHARGES

@<TRIPOS>ATOM
      1 C1         -0.0187    1.5258    0.0104 C.3       1 <0>        -0.1573
      2 C2          0.0021   -0.0041    0.0020 C.3       1 <0>        -0.1267
      3 C3          0.7182   -0.4975   -1.2568 C.3       1 <0>        -0.1216
      4 C4          0.7390   -2.0273   -1.2652 C.3       1 <0>        -0.1185
      5 C5          1.4551   -2.5207   -2.5240 C.3       1 <0>        -0.1476
      6 C6          1.4758   -4.0506   -2.5324 C.3       1 <0>        -0.0133
      7 N1          2.1634   -4.5243   -3.7410 N.4       1 <0>        -0.5038
      8 C7          2.1834   -5.9932   -3.7491 C.3       1 <0>         0.0840
      9 C8          2.9992   -6.4860   -2.5900 C.2       1 <0>        -0.1881
     10 C9          3.8504   -7.4584   -2.6636 C.2       1 <0>        -0.0891
     11 C10         4.1481   -8.2219   -3.9207 C.3       1 <0>         0.1003
     12 C11         3.0399   -7.9936   -4.9510 C.3       1 <0>         0.0928
     13 C12         2.7878   -6.4850   -5.0661 C.3       1 <0>         0.0968
     14 O1          1.8770   -6.2304   -6.1373 O.3       1 <0>        -0.5541
     15 O2          1.8442   -8.6492   -4.5236 O.3       1 <0>        -0.5478
     16 O3          4.2343   -9.6161   -3.6190 O.3       1 <0>        -0.5493
     17 C13         4.5888   -7.8476   -1.4089 C.3       1 <0>         0.0943
     18 O4          4.1696   -7.0095   -0.3301 O.3       1 <0>        -0.5733
     19 H1          1.0039    1.9031    0.0027 H         1 <0>         0.0550
     20 H2         -0.5459    1.8868   -0.8726 H         1 <0>         0.0553
     21 H3         -0.5289    1.8773    0.9072 H         1 <0>         0.0587
     22 H4          0.5293   -0.3651    0.8851 H         1 <0>         0.0632
     23 H5         -1.0205   -0.3814    0.0098 H         1 <0>         0.0635
     24 H6          0.1910   -0.1364   -2.1398 H         1 <0>         0.0660
     25 H7          1.7408   -0.1202   -1.2645 H         1 <0>         0.0656
     26 H8          1.2661   -2.3884   -0.3821 H         1 <0>         0.0740
     27 H9         -0.2836   -2.4046   -1.2575 H         1 <0>         0.0743
     28 H10         0.9279   -2.1597   -3.4071 H         1 <0>         0.0874
     29 H11         2.4777   -2.1435   -2.5317 H         1 <0>         0.0865
     30 H12         2.0030   -4.4117   -1.6494 H         1 <0>         0.1341
     31 H13         0.4533   -4.4279   -2.5247 H         1 <0>         0.1328
     32 H14         1.6754   -4.1901   -4.5585 H         1 <0>         0.4348
     33 H15         1.1643   -6.3688   -3.6567 H         1 <0>         0.1619
     34 H16         2.8683   -5.9987   -1.6351 H         1 <0>         0.1554
     35 H17         5.0991   -7.8839   -4.3322 H         1 <0>         0.0904
     36 H18         3.3518   -8.3877   -5.9182 H         1 <0>         0.0917
     37 H19         3.7301   -5.9695   -5.2519 H         1 <0>         0.0959
     38 H20         2.1978   -6.5180   -7.0031 H         1 <0>         0.4079
     39 H21         1.9375   -9.6055   -4.4145 H         1 <0>         0.4014
     40 H22         4.9244   -9.8380   -2.9790 H         1 <0>         0.3938
     41 H23         4.3707   -8.8878   -1.1668 H         1 <0>         0.0767
     42 H24         5.6608   -7.7283   -1.5663 H         1 <0>         0.0735
     43 H25         4.6049   -7.2040    0.5112 H         1 <0>         0.3991
     44 H26         3.1100   -4.1751   -3.7482 H         1 <0>         0.4235
@<TRIPOS>BOND
     1    1    2 1
     2    1   19 1
     3    1   20 1
     4    1   21 1
     5    2    3 1
     6    2   22 1
     7    2   23 1
     8    3    4 1
     9    3   24 1
    10    3   25 1
    11    4    5 1
    12    4   26 1
    13    4   27 1
    14    5    6 1
    15    5   28 1
    16    5   29 1
    17    6    7 1
    18    6   30 1
    19    6   31 1
    20    7    8 1
    21    7   32 1
    22    7   44 1
    23    8   13 1
    24    8    9 1
    25    8   33 1
    26    9   10 2
    27    9   34 1
    28   10   11 1
    29   10   17 1
    30   11   12 1
    31   11   16 1
    32   11   35 1
    33   12   13 1
    34   12   15 1
    35   12   36 1
    36   13   14 1
    37   13   37 1
    38   14   38 1
    39   15   39 1
    40   16   40 1
    41   17   18 1
    42   17   41 1
    43   17   42 1
    44   18   43 1
@<TRIPOS>MOLECULE
CHEMBL354193__2
   44    44     0     0     0
SMALL
USER_CHARGES

@<TRIPOS>ATOM
      1 C1         -0.0187    1.5258    0.0104 C.3       1 <0>        -0.1574
      2 C2          0.0021   -0.0041    0.0020 C.3       1 <0>        -0.1265
      3 C3          0.7182   -0.4975   -1.2568 C.3       1 <0>        -0.1219
      4 C4          0.7390   -2.0273   -1.2652 C.3       1 <0>        -0.1182
      5 C5          1.4551   -2.5207   -2.5240 C.3       1 <0>        -0.1477
      6 C6          1.4758   -4.0506   -2.5324 C.3       1 <0>        -0.0147
      7 N1          2.1634   -4.5243   -3.7410 N.4       1 <0>        -0.4978
      8 C7          2.1834   -5.9932   -3.7491 C.3       1 <0>         0.0829
      9 C8          2.9992   -6.4860   -2.5900 C.2       1 <0>        -0.2013
     10 C9          3.8504   -7.4584   -2.6636 C.2       1 <0>        -0.0769
     11 C10         4.1473   -8.2226   -3.9205 C.3       1 <0>         0.1045
     12 C11         3.0391   -7.9939   -4.9506 C.3       1 <0>         0.0919
     13 C12         2.7878   -6.4850   -5.0661 C.3       1 <0>         0.0955
     14 O1          4.0231   -5.8092   -5.3096 O.3       1 <0>        -0.5666
     15 O2          3.4475   -8.5113   -6.2185 O.3       1 <0>        -0.5549
     16 O3          4.2328   -9.6166   -3.6183 O.3       1 <0>        -0.5541
     17 C13         4.5888   -7.8476   -1.4089 C.3       1 <0>         0.0935
     18 O4          4.1696   -7.0095   -0.3301 O.3       1 <0>        -0.5733
     19 H1          1.0039    1.9031    0.0027 H         1 <0>         0.0552
     20 H2         -0.5459    1.8868   -0.8726 H         1 <0>         0.0552
     21 H3         -0.5289    1.8773    0.9072 H         1 <0>         0.0587
     22 H4          0.5293   -0.3651    0.8851 H         1 <0>         0.0633
     23 H5         -1.0205   -0.3814    0.0098 H         1 <0>         0.0633
     24 H6          0.1910   -0.1364   -2.1398 H         1 <0>         0.0660
     25 H7          1.7408   -0.1202   -1.2645 H         1 <0>         0.0660
     26 H8          1.2661   -2.3884   -0.3821 H         1 <0>         0.0741
     27 H9         -0.2836   -2.4046   -1.2575 H         1 <0>         0.0739
     28 H10         0.9279   -2.1597   -3.4071 H         1 <0>         0.0873
     29 H11         2.4777   -2.1435   -2.5317 H         1 <0>         0.0874
     30 H12         2.0030   -4.4117   -1.6494 H         1 <0>         0.1348
     31 H13         0.4533   -4.4279   -2.5247 H         1 <0>         0.1322
     32 H14         1.6754   -4.1901   -4.5585 H         1 <0>         0.4288
     33 H15         1.1643   -6.3688   -3.6567 H         1 <0>         0.1584
     34 H16         2.8683   -5.9987   -1.6351 H         1 <0>         0.1530
     35 H17         5.0985   -7.8853   -4.3323 H         1 <0>         0.0953
     36 H18         2.1268   -8.4933   -4.6243 H         1 <0>         0.0870
     37 H19         2.0931   -6.2908   -5.8832 H         1 <0>         0.1035
     38 H20         4.4610   -6.0738   -6.1302 H         1 <0>         0.4155
     39 H21         3.6390   -9.4592   -6.2133 H         1 <0>         0.4059
     40 H22         4.9229   -9.8388   -2.9784 H         1 <0>         0.3918
     41 H23         4.3707   -8.8878   -1.1668 H         1 <0>         0.0767
     42 H24         5.6608   -7.7283   -1.5663 H         1 <0>         0.0746
     43 H25         4.6049   -7.2040    0.5112 H         1 <0>         0.3989
     44 H26         3.1100   -4.1751   -3.7482 H         1 <0>         0.4360
@<TRIPOS>BOND
     1    1    2 1
     2    1   19 1
     3    1   20 1
     4    1   21 1
     5    2    3 1
     6    2   22 1
     7    2   23 1
     8    3    4 1
     9    3   24 1
    10    3   25 1
    11    4    5 1
    12    4   26 1
    13    4   27 1
    14    5    6 1
    15    5   28 1
    16    5   29 1
    17    6    7 1
    18    6   30 1
    19    6   31 1
    20    7    8 1
    21    7   32 1
    22    7   44 1
    23    8   13 1
    24    8    9 1
    25    8   33 1
    26    9   10 2
    27    9   34 1
    28   10   11 1
    29   10   17 1
    30   11   12 1
    31   11   16 1
    32   11   35 1
    33   12   13 1
    34   12   15 1
    35   12   36 1
    36   13   14 1
    37   13   37 1
    38   14   38 1
    39   15   39 1
    40   16   40 1
    41   17   18 1
    42   17   41 1
    43   17   42 1
    44   18   43 1
@<TRIPOS>MOLECULE
CHEMBL354193__3
   44    44     0     0     0
SMALL
USER_CHARGES

@<TRIPOS>ATOM
      1 C1         -0.0187    1.5258    0.0104 C.3       1 <0>        -0.1574
      2 C2          0.0021   -0.0041    0.0020 C.3       1 <0>        -0.1266
      3 C3          0.7182   -0.4975   -1.2568 C.3       1 <0>        -0.1219
      4 C4          0.7390   -2.0273   -1.2652 C.3       1 <0>        -0.1183
      5 C5          1.4551   -2.5207   -2.5240 C.3       1 <0>        -0.1480
      6 C6          1.4758   -4.0506   -2.5324 C.3       1 <0>        -0.0137
      7 N1          2.1634   -4.5243   -3.7410 N.4       1 <0>        -0.5009
      8 C7          2.1834   -5.9932   -3.7491 C.3       1 <0>         0.0808
      9 C8          2.9992   -6.4860   -2.5900 C.2       1 <0>        -0.2010
     10 C9          3.8504   -7.4584   -2.6636 C.2       1 <0>        -0.0848
     11 C10         4.1481   -8.2219   -3.9207 C.3       1 <0>         0.0990
     12 C11         3.0399   -7.9936   -4.9510 C.3       1 <0>         0.0942
     13 C12         2.7878   -6.4850   -5.0661 C.3       1 <0>         0.0982
     14 O1          1.8770   -6.2304   -6.1373 O.3       1 <0>        -0.5577
     15 O2          3.4489   -8.5103   -6.2190 O.3       1 <0>        -0.5545
     16 O3          4.2343   -9.6161   -3.6190 O.3       1 <0>        -0.5493
     17 C13         4.5888   -7.8476   -1.4089 C.3       1 <0>         0.0933
     18 O4          4.1696   -7.0095   -0.3301 O.3       1 <0>        -0.5734
     19 H1          1.0039    1.9031    0.0027 H         1 <0>         0.0551
     20 H2         -0.5459    1.8868   -0.8726 H         1 <0>         0.0553
     21 H3         -0.5289    1.8773    0.9072 H         1 <0>         0.0587
     22 H4          0.5293   -0.3651    0.8851 H         1 <0>         0.0632
     23 H5         -1.0205   -0.3814    0.0098 H         1 <0>         0.0634
     24 H6          0.1910   -0.1364   -2.1398 H         1 <0>         0.0662
     25 H7          1.7408   -0.1202   -1.2645 H         1 <0>         0.0658
     26 H8          1.2661   -2.3884   -0.3821 H         1 <0>         0.0742
     27 H9         -0.2836   -2.4046   -1.2575 H         1 <0>         0.0743
     28 H10         0.9279   -2.1597   -3.4071 H         1 <0>         0.0880
     29 H11         2.4777   -2.1435   -2.5317 H         1 <0>         0.0871
     30 H12         2.0030   -4.4117   -1.6494 H         1 <0>         0.1351
     31 H13         0.4533   -4.4279   -2.5247 H         1 <0>         0.1334
     32 H14         1.6754   -4.1901   -4.5585 H         1 <0>         0.4364
     33 H15         1.1643   -6.3688   -3.6567 H         1 <0>         0.1571
     34 H16         2.8683   -5.9987   -1.6351 H         1 <0>         0.1594
     35 H17         5.0991   -7.8839   -4.3322 H         1 <0>         0.0937
     36 H18         2.1278   -8.4937   -4.6250 H         1 <0>         0.0878
     37 H19         3.7301   -5.9695   -5.2519 H         1 <0>         0.0900
     38 H20         2.1978   -6.5180   -7.0031 H         1 <0>         0.4162
     39 H21         3.6409   -9.4580   -6.2141 H         1 <0>         0.4071
     40 H22         4.9244   -9.8380   -2.9790 H         1 <0>         0.3928
     41 H23         4.3707   -8.8878   -1.1668 H         1 <0>         0.0789
     42 H24         5.6608   -7.7283   -1.5663 H         1 <0>         0.0762
     43 H25         4.6049   -7.2040    0.5112 H         1 <0>         0.4003
     44 H26         3.1100   -4.1751   -3.7482 H         1 <0>         0.4262
@<TRIPOS>BOND
     1    1    2 1
     2    1   19 1
     3    1   20 1
     4    1   21 1
     5    2    3 1
     6    2   22 1
     7    2   23 1
     8    3    4 1
     9    3   24 1
    10    3   25 1
    11    4    5 1
    12    4   26 1
    13    4   27 1
    14    5    6 1
    15    5   28 1
    16    5   29 1
    17    6    7 1
    18    6   30 1
    19    6   31 1
    20    7    8 1
    21    7   32 1
    22    7   44 1
    23    8   13 1
    24    8    9 1
    25    8   33 1
    26    9   10 2
    27    9   34 1
    28   10   11 1
    29   10   17 1
    30   11   12 1
    31   11   16 1
    32   11   35 1
    33   12   13 1
    34   12   15 1
    35   12   36 1
    36   13   14 1
    37   13   37 1
    38   14   38 1
    39   15   39 1
    40   16   40 1
    41   17   18 1
    42   17   41 1
    43   17   42 1
    44   18   43 1
@<TRIPOS>MOLECULE
CHEMBL354193__4
   44    44     0     0     0
SMALL
USER_CHARGES

@<TRIPOS>ATOM
      1 C1         -0.0187    1.5258    0.0104 C.3       1 <0>        -0.1573
      2 C2          0.0021   -0.0041    0.0020 C.3       1 <0>        -0.1265
      3 C3          0.7182   -0.4975   -1.2568 C.3       1 <0>        -0.1218
      4 C4          0.7390   -2.0273   -1.2652 C.3       1 <0>        -0.1182
      5 C5          1.4551   -2.5207   -2.5240 C.3       1 <0>        -0.1474
      6 C6          1.4758   -4.0506   -2.5324 C.3       1 <0>        -0.0144
      7 N1          2.1634   -4.5243   -3.7410 N.4       1 <0>        -0.5000
      8 C7          2.1834   -5.9932   -3.7491 C.3       1 <0>         0.0855
      9 C8          2.9992   -6.4860   -2.5900 C.2       1 <0>        -0.1756
     10 C9          3.8504   -7.4584   -2.6636 C.2       1 <0>        -0.0893
     11 C10         4.1473   -8.2226   -3.9205 C.3       1 <0>         0.1100
     12 C11         3.0391   -7.9939   -4.9506 C.3       1 <0>         0.0857
     13 C12         2.7878   -6.4850   -5.0661 C.3       1 <0>         0.0972
     14 O1          4.0231   -5.8092   -5.3096 O.3       1 <0>        -0.5478
     15 O2          1.8431   -8.6487   -4.5228 O.3       1 <0>        -0.5522
     16 O3          5.3944   -7.7803   -4.4603 O.3       1 <0>        -0.5396
     17 C13         4.5888   -7.8476   -1.4089 C.3       1 <0>         0.0976
     18 O4          4.1696   -7.0095   -0.3301 O.3       1 <0>        -0.5743
     19 H1          1.0039    1.9031    0.0027 H         1 <0>         0.0552
     20 H2         -0.5459    1.8868   -0.8726 H         1 <0>         0.0552
     21 H3         -0.5289    1.8773    0.9072 H         1 <0>         0.0586
     22 H4          0.5293   -0.3651    0.8851 H         1 <0>         0.0632
     23 H5         -1.0205   -0.3814    0.0098 H         1 <0>         0.0632
     24 H6          0.1910   -0.1364   -2.1398 H         1 <0>         0.0659
     25 H7          1.7408   -0.1202   -1.2645 H         1 <0>         0.0659
     26 H8          1.2661   -2.3884   -0.3821 H         1 <0>         0.0738
     27 H9         -0.2836   -2.4046   -1.2575 H         1 <0>         0.0737
     28 H10         0.9279   -2.1597   -3.4071 H         1 <0>         0.0867
     29 H11         2.4777   -2.1435   -2.5317 H         1 <0>         0.0868
     30 H12         2.0030   -4.4117   -1.6494 H         1 <0>         0.1332
     31 H13         0.4533   -4.4279   -2.5247 H         1 <0>         0.1312
     32 H14         1.6754   -4.1901   -4.5585 H         1 <0>         0.4272
     33 H15         1.1643   -6.3688   -3.6567 H         1 <0>         0.1601
     34 H16         2.8683   -5.9987   -1.6351 H         1 <0>         0.1479
     35 H17         4.2126   -9.2859   -3.6900 H         1 <0>         0.0787
     36 H18         3.3506   -8.3886   -5.9177 H         1 <0>         0.0940
     37 H19         2.0931   -6.2908   -5.8832 H         1 <0>         0.0947
     38 H20         4.4610   -6.0738   -6.1302 H         1 <0>         0.4101
     39 H21         1.9359   -9.6049   -4.4133 H         1 <0>         0.3998
     40 H22         6.1466   -7.9043   -3.8654 H         1 <0>         0.3898
     41 H23         4.3707   -8.8878   -1.1668 H         1 <0>         0.0716
     42 H24         5.6608   -7.7283   -1.5663 H         1 <0>         0.0701
     43 H25         4.6049   -7.2040    0.5112 H         1 <0>         0.3975
     44 H26         3.1100   -4.1751   -3.7482 H         1 <0>         0.4343
@<TRIPOS>BOND
     1    1    2 1
     2    1   19 1
     3    1   20 1
     4    1   21 1
     5    2    3 1
     6    2   22 1
     7    2   23 1
     8    3    4 1
     9    3   24 1
    10    3   25 1
    11    4    5 1
    12    4   26 1
    13    4   27 1
    14    5    6 1
    15    5   28 1
    16    5   29 1
    17    6    7 1
    18    6   30 1
    19    6   31 1
    20    7    8 1
    21    7   32 1
    22    7   44 1
    23    8   13 1
    24    8    9 1
    25    8   33 1
    26    9   10 2
    27    9   34 1
    28   10   11 1
    29   10   17 1
    30   11   12 1
    31   11   16 1
    32   11   35 1
    33   12   13 1
    34   12   15 1
    35   12   36 1
    36   13   14 1
    37   13   37 1
    38   14   38 1
    39   15   39 1
    40   16   40 1
    41   17   18 1
    42   17   41 1
    43   17   42 1
    44   18   43 1
@<TRIPOS>MOLECULE
CHEMBL354193__5
   44    44     0     0     0
SMALL
USER_CHARGES

@<TRIPOS>ATOM
      1 C1         -0.0187    1.5258    0.0104 C.3       1 <0>        -0.1573
      2 C2          0.0021   -0.0041    0.0020 C.3       1 <0>        -0.1266
      3 C3          0.7182   -0.4975   -1.2568 C.3       1 <0>        -0.1217
      4 C4          0.7390   -2.0273   -1.2652 C.3       1 <0>        -0.1183
      5 C5          1.4551   -2.5207   -2.5240 C.3       1 <0>        -0.1478
      6 C6          1.4758   -4.0506   -2.5324 C.3       1 <0>        -0.0134
      7 N1          2.1634   -4.5243   -3.7410 N.4       1 <0>        -0.5032
      8 C7          2.1834   -5.9932   -3.7491 C.3       1 <0>         0.0822
      9 C8          2.9992   -6.4860   -2.5900 C.2       1 <0>        -0.1762
     10 C9          3.8504   -7.4584   -2.6636 C.2       1 <0>        -0.0959
     11 C10         4.1481   -8.2219   -3.9207 C.3       1 <0>         0.1012
     12 C11         3.0399   -7.9936   -4.9510 C.3       1 <0>         0.0899
     13 C12         2.7878   -6.4850   -5.0661 C.3       1 <0>         0.0992
     14 O1          1.8770   -6.2304   -6.1373 O.3       1 <0>        -0.5594
     15 O2          1.8442   -8.6492   -4.5236 O.3       1 <0>        -0.5456
     16 O3          5.3949   -7.7787   -4.4602 O.3       1 <0>        -0.5489
     17 C13         4.5888   -7.8476   -1.4089 C.3       1 <0>         0.0975
     18 O4          4.1696   -7.0095   -0.3301 O.3       1 <0>        -0.5744
     19 H1          1.0039    1.9031    0.0027 H         1 <0>         0.0551
     20 H2         -0.5459    1.8868   -0.8726 H         1 <0>         0.0553
     21 H3         -0.5289    1.8773    0.9072 H         1 <0>         0.0586
     22 H4          0.5293   -0.3651    0.8851 H         1 <0>         0.0632
     23 H5         -1.0205   -0.3814    0.0098 H         1 <0>         0.0634
     24 H6          0.1910   -0.1364   -2.1398 H         1 <0>         0.0661
     25 H7          1.7408   -0.1202   -1.2645 H         1 <0>         0.0657
     26 H8          1.2661   -2.3884   -0.3821 H         1 <0>         0.0739
     27 H9         -0.2836   -2.4046   -1.2575 H         1 <0>         0.0742
     28 H10         0.9279   -2.1597   -3.4071 H         1 <0>         0.0875
     29 H11         2.4777   -2.1435   -2.5317 H         1 <0>         0.0866
     30 H12         2.0030   -4.4117   -1.6494 H         1 <0>         0.1337
     31 H13         0.4533   -4.4279   -2.5247 H         1 <0>         0.1326
     32 H14         1.6754   -4.1901   -4.5585 H         1 <0>         0.4350
     33 H15         1.1643   -6.3688   -3.6567 H         1 <0>         0.1609
     34 H16         2.8683   -5.9987   -1.6351 H         1 <0>         0.1549
     35 H17         4.2139   -9.2853   -3.6906 H         1 <0>         0.0871
     36 H18         3.3518   -8.3877   -5.9182 H         1 <0>         0.0958
     37 H19         3.7301   -5.9695   -5.2519 H         1 <0>         0.1020
     38 H20         2.1978   -6.5180   -7.0031 H         1 <0>         0.4075
     39 H21         1.9375   -9.6055   -4.4145 H         1 <0>         0.3956
     40 H22         6.1471   -7.9024   -3.8651 H         1 <0>         0.3944
     41 H23         4.3707   -8.8878   -1.1668 H         1 <0>         0.0744
     42 H24         5.6608   -7.7283   -1.5663 H         1 <0>         0.0718
     43 H25         4.6049   -7.2040    0.5112 H         1 <0>         0.3990
     44 H26         3.1100   -4.1751   -3.7482 H         1 <0>         0.4245
@<TRIPOS>BOND
     1    1    2 1
     2    1   19 1
     3    1   20 1
     4    1   21 1
     5    2    3 1
     6    2   22 1
     7    2   23 1
     8    3    4 1
     9    3   24 1
    10    3   25 1
    11    4    5 1
    12    4   26 1
    13    4   27 1
    14    5    6 1
    15    5   28 1
    16    5   29 1
    17    6    7 1
    18    6   30 1
    19    6   31 1
    20    7    8 1
    21    7   32 1
    22    7   44 1
    23    8   13 1
    24    8    9 1
    25    8   33 1
    26    9   10 2
    27    9   34 1
    28   10   11 1
    29   10   17 1
    30   11   12 1
    31   11   16 1
    32   11   35 1
    33   12   13 1
    34   12   15 1
    35   12   36 1
    36   13   14 1
    37   13   37 1
    38   14   38 1
    39   15   39 1
    40   16   40 1
    41   17   18 1
    42   17   41 1
    43   17   42 1
    44   18   43 1
@<TRIPOS>MOLECULE
CHEMBL354193__6
   44    44     0     0     0
SMALL
USER_CHARGES

@<TRIPOS>ATOM
      1 C1         -0.0187    1.5258    0.0104 C.3       1 <0>        -0.1574
      2 C2          0.0021   -0.0041    0.0020 C.3       1 <0>        -0.1264
      3 C3          0.7182   -0.4975   -1.2568 C.3       1 <0>        -0.1220
      4 C4          0.7390   -2.0273   -1.2652 C.3       1 <0>        -0.1180
      5 C5          1.4551   -2.5207   -2.5240 C.3       1 <0>        -0.1479
      6 C6          1.4758   -4.0506   -2.5324 C.3       1 <0>        -0.0145
      7 N1          2.1634   -4.5243   -3.7410 N.4       1 <0>        -0.4971
      8 C7          2.1834   -5.9932   -3.7491 C.3       1 <0>         0.0816
      9 C8          2.9992   -6.4860   -2.5900 C.2       1 <0>        -0.1889
     10 C9          3.8504   -7.4584   -2.6636 C.2       1 <0>        -0.0847
     11 C10         4.1481   -8.2219   -3.9207 C.3       1 <0>         0.1076
     12 C11         3.0399   -7.9936   -4.9510 C.3       1 <0>         0.0883
     13 C12         2.7878   -6.4850   -5.0661 C.3       1 <0>         0.0949
     14 O1          4.0231   -5.8092   -5.3096 O.3       1 <0>        -0.5529
     15 O2          3.4489   -8.5103   -6.2190 O.3       1 <0>        -0.5453
     16 O3          5.3949   -7.7787   -4.4602 O.3       1 <0>        -0.5289
     17 C13         4.5888   -7.8476   -1.4089 C.3       1 <0>         0.0967
     18 O4          4.1696   -7.0095   -0.3301 O.3       1 <0>        -0.5747
     19 H1          1.0039    1.9031    0.0027 H         1 <0>         0.0553
     20 H2         -0.5459    1.8868   -0.8726 H         1 <0>         0.0552
     21 H3         -0.5289    1.8773    0.9072 H         1 <0>         0.0586
     22 H4          0.5293   -0.3651    0.8851 H         1 <0>         0.0632
     23 H5         -1.0205   -0.3814    0.0098 H         1 <0>         0.0632
     24 H6          0.1910   -0.1364   -2.1398 H         1 <0>         0.0660
     25 H7          1.7408   -0.1202   -1.2645 H         1 <0>         0.0661
     26 H8          1.2661   -2.3884   -0.3821 H         1 <0>         0.0739
     27 H9         -0.2836   -2.4046   -1.2575 H         1 <0>         0.0736
     28 H10         0.9279   -2.1597   -3.4071 H         1 <0>         0.0872
     29 H11         2.4777   -2.1435   -2.5317 H         1 <0>         0.0875
     30 H12         2.0030   -4.4117   -1.6494 H         1 <0>         0.1340
     31 H13         0.4533   -4.4279   -2.5247 H         1 <0>         0.1316
     32 H14         1.6754   -4.1901   -4.5585 H         1 <0>         0.4286
     33 H15         1.1643   -6.3688   -3.6567 H         1 <0>         0.1556
     34 H16         2.8683   -5.9987   -1.6351 H         1 <0>         0.1512
     35 H17         4.2139   -9.2853   -3.6906 H         1 <0>         0.0785
     36 H18         2.1278   -8.4937   -4.6250 H         1 <0>         0.0882
     37 H19         2.0931   -6.2908   -5.8832 H         1 <0>         0.0940
     38 H20         4.4610   -6.0738   -6.1302 H         1 <0>         0.4146
     39 H21         3.6409   -9.4580   -6.2141 H         1 <0>         0.3981
     40 H22         6.1471   -7.9024   -3.8651 H         1 <0>         0.3839
     41 H23         4.3707   -8.8878   -1.1668 H         1 <0>         0.0736
     42 H24         5.6608   -7.7283   -1.5663 H         1 <0>         0.0725
     43 H25         4.6049   -7.2040    0.5112 H         1 <0>         0.3985
     44 H26         3.1100   -4.1751   -3.7482 H         1 <0>         0.4368
@<TRIPOS>BOND
     1    1    2 1
     2    1   19 1
     3    1   20 1
     4    1   21 1
     5    2    3 1
     6    2   22 1
     7    2   23 1
     8    3    4 1
     9    3   24 1
    10    3   25 1
    11    4    5 1
    12    4   26 1
    13    4   27 1
    14    5    6 1
    15    5   28 1
    16    5   29 1
    17    6    7 1
    18    6   30 1
    19    6   31 1
    20    7    8 1
    21    7   32 1
    22    7   44 1
    23    8   13 1
    24    8    9 1
    25    8   33 1
    26    9   10 2
    27    9   34 1
    28   10   11 1
    29   10   17 1
    30   11   12 1
    31   11   16 1
    32   11   35 1
    33   12   13 1
    34   12   15 1
    35   12   36 1
    36   13   14 1
    37   13   37 1
    38   14   38 1
    39   15   39 1
    40   16   40 1
    41   17   18 1
    42   17   41 1
    43   17   42 1
    44   18   43 1
@<TRIPOS>MOLECULE
CHEMBL354193__7
   44    44     0     0     0
SMALL
USER_CHARGES

@<TRIPOS>ATOM
      1 C1         -0.0187    1.5258    0.0104 C.3       1 <0>        -0.1574
      2 C2          0.0021   -0.0041    0.0020 C.3       1 <0>        -0.1264
      3 C3          0.7182   -0.4975   -1.2568 C.3       1 <0>        -0.1220
      4 C4          0.7390   -2.0273   -1.2652 C.3       1 <0>        -0.1180
      5 C5          1.4551   -2.5207   -2.5240 C.3       1 <0>        -0.1483
      6 C6          1.4758   -4.0506   -2.5324 C.3       1 <0>        -0.0137
      7 N1          2.1634   -4.5243   -3.7410 N.4       1 <0>        -0.5005
      8 C7          2.1834   -5.9932   -3.7491 C.3       1 <0>         0.0796
      9 C8          2.9992   -6.4860   -2.5900 C.2       1 <0>        -0.1893
     10 C9          3.8504   -7.4584   -2.6636 C.2       1 <0>        -0.0913
     11 C10         4.1481   -8.2219   -3.9207 C.3       1 <0>         0.0976
     12 C11         3.0399   -7.9936   -4.9510 C.3       1 <0>         0.0945
     13 C12         2.7878   -6.4850   -5.0661 C.3       1 <0>         0.0958
     14 O1          1.8770   -6.2304   -6.1373 O.3       1 <0>        -0.5633
     15 O2          3.4489   -8.5103   -6.2190 O.3       1 <0>        -0.5445
     16 O3          5.3949   -7.7787   -4.4602 O.3       1 <0>        -0.5387
     17 C13         4.5888   -7.8476   -1.4089 C.3       1 <0>         0.0965
     18 O4          4.1696   -7.0095   -0.3301 O.3       1 <0>        -0.5748
     19 H1          1.0039    1.9031    0.0027 H         1 <0>         0.0552
     20 H2         -0.5459    1.8868   -0.8726 H         1 <0>         0.0553
     21 H3         -0.5289    1.8773    0.9072 H         1 <0>         0.0587
     22 H4          0.5293   -0.3651    0.8851 H         1 <0>         0.0632
     23 H5         -1.0205   -0.3814    0.0098 H         1 <0>         0.0633
     24 H6          0.1910   -0.1364   -2.1398 H         1 <0>         0.0662
     25 H7          1.7408   -0.1202   -1.2645 H         1 <0>         0.0659
     26 H8          1.2661   -2.3884   -0.3821 H         1 <0>         0.0740
     27 H9         -0.2836   -2.4046   -1.2575 H         1 <0>         0.0741
     28 H10         0.9279   -2.1597   -3.4071 H         1 <0>         0.0880
     29 H11         2.4777   -2.1435   -2.5317 H         1 <0>         0.0872
     30 H12         2.0030   -4.4117   -1.6494 H         1 <0>         0.1345
     31 H13         0.4533   -4.4279   -2.5247 H         1 <0>         0.1331
     32 H14         1.6754   -4.1901   -4.5585 H         1 <0>         0.4364
     33 H15         1.1643   -6.3688   -3.6567 H         1 <0>         0.1557
     34 H16         2.8683   -5.9987   -1.6351 H         1 <0>         0.1583
     35 H17         4.2139   -9.2853   -3.6906 H         1 <0>         0.0872
     36 H18         2.1278   -8.4937   -4.6250 H         1 <0>         0.0903
     37 H19         3.7301   -5.9695   -5.2519 H         1 <0>         0.0962
     38 H20         2.1978   -6.5180   -7.0031 H         1 <0>         0.4154
     39 H21         3.6409   -9.4580   -6.2141 H         1 <0>         0.3995
     40 H22         6.1471   -7.9024   -3.8651 H         1 <0>         0.3888
     41 H23         4.3707   -8.8878   -1.1668 H         1 <0>         0.0764
     42 H24         5.6608   -7.7283   -1.5663 H         1 <0>         0.0742
     43 H25         4.6049   -7.2040    0.5112 H         1 <0>         0.4000
     44 H26         3.1100   -4.1751   -3.7482 H         1 <0>         0.4271
@<TRIPOS>BOND
     1    1    2 1
     2    1   19 1
     3    1   20 1
     4    1   21 1
     5    2    3 1
     6    2   22 1
     7    2   23 1
     8    3    4 1
     9    3   24 1
    10    3   25 1
    11    4    5 1
    12    4   26 1
    13    4   27 1
    14    5    6 1
    15    5   28 1
    16    5   29 1
    17    6    7 1
    18    6   30 1
    19    6   31 1
    20    7    8 1
    21    7   32 1
    22    7   44 1
    23    8   13 1
    24    8    9 1
    25    8   33 1
    26    9   10 2
    27    9   34 1
    28   10   11 1
    29   10   17 1
    30   11   12 1
    31   11   16 1
    32   11   35 1
    33   12   13 1
    34   12   15 1
    35   12   36 1
    36   13   14 1
    37   13   37 1
    38   14   38 1
    39   15   39 1
    40   16   40 1
    41   17   18 1
    42   17   41 1
    43   17   42 1
    44   18   43 1
@<TRIPOS>MOLECULE
CHEMBL354193__8
   44    44     0     0     0
SMALL
USER_CHARGES

@<TRIPOS>ATOM
      1 C1         -0.0187    1.5258    0.0104 C.3       1 <0>        -0.1574
      2 C2          0.0021   -0.0041    0.0020 C.3       1 <0>        -0.1264
      3 C3          0.7182   -0.4975   -1.2568 C.3       1 <0>        -0.1220
      4 C4          0.7390   -2.0273   -1.2652 C.3       1 <0>        -0.1180
      5 C5          1.4551   -2.5207   -2.5240 C.3       1 <0>        -0.1483
      6 C6          1.4758   -4.0506   -2.5324 C.3       1 <0>        -0.0137
      7 N1          2.1634   -4.5243   -3.7410 N.4       1 <0>        -0.5005
      8 C7          2.1834   -5.9932   -3.7491 C.3       1 <0>         0.0796
      9 C8          0.7774   -6.5092   -3.8449 C.2       1 <0>        -0.1893
     10 C9          0.4165   -7.4943   -4.6031 C.2       1 <0>        -0.0914
     11 C10         1.3516   -8.2512   -5.5002 C.3       1 <0>         0.0976
     12 C11         2.8022   -7.9961   -5.0852 C.3       1 <0>         0.0946
     13 C12         3.0069   -6.4827   -4.9423 C.3       1 <0>         0.0957
     14 O1          4.3904   -6.2041   -4.7177 O.3       1 <0>        -0.5633
     15 O2          3.6851   -8.5078   -6.0855 O.3       1 <0>        -0.5445
     16 O3          1.1629   -7.8230   -6.8504 O.3       1 <0>        -0.5388
     17 C13        -1.0329   -7.9064   -4.5840 C.3       1 <0>         0.0965
     18 O4         -1.7536   -7.0714   -3.6755 O.3       1 <0>        -0.5748
     19 H1          1.0039    1.9031    0.0027 H         1 <0>         0.0553
     20 H2         -0.5459    1.8868   -0.8726 H         1 <0>         0.0552
     21 H3         -0.5289    1.8773    0.9072 H         1 <0>         0.0587
     22 H4          0.5293   -0.3651    0.8851 H         1 <0>         0.0633
     23 H5         -1.0205   -0.3814    0.0098 H         1 <0>         0.0632
     24 H6          0.1910   -0.1364   -2.1398 H         1 <0>         0.0659
     25 H7          1.7408   -0.1202   -1.2645 H         1 <0>         0.0662
     26 H8          1.2661   -2.3884   -0.3821 H         1 <0>         0.0741
     27 H9         -0.2836   -2.4046   -1.2575 H         1 <0>         0.0740
     28 H10         0.9279   -2.1597   -3.4071 H         1 <0>         0.0872
     29 H11         2.4777   -2.1435   -2.5317 H         1 <0>         0.0880
     30 H12         2.0030   -4.4117   -1.6494 H         1 <0>         0.1331
     31 H13         0.4533   -4.4279   -2.5247 H         1 <0>         0.1345
     32 H14         1.6754   -4.1901   -4.5585 H         1 <0>         0.4271
     33 H15         2.6362   -6.3534   -2.8254 H         1 <0>         0.1557
     34 H16         0.0197   -6.0290   -3.2435 H         1 <0>         0.1583
     35 H17         1.1373   -9.3175   -5.4282 H         1 <0>         0.0872
     36 H18         3.0017   -8.4845   -4.1314 H         1 <0>         0.0903
     37 H19         2.6715   -5.9806   -5.8497 H         1 <0>         0.0962
     38 H20         4.9707   -6.4890   -5.4369 H         1 <0>         0.4154
     39 H21         3.5968   -9.4585   -6.2390 H         1 <0>         0.3995
     40 H22         0.2671   -7.9639   -7.1862 H         1 <0>         0.3888
     41 H23        -1.4533   -7.8027   -5.5844 H         1 <0>         0.0742
     42 H24        -1.1111   -8.9451   -4.2630 H         1 <0>         0.0764
     43 H25        -2.6957   -7.2803   -3.6122 H         1 <0>         0.4000
     44 H26         3.1100   -4.1751   -3.7482 H         1 <0>         0.4364
@<TRIPOS>BOND
     1    1    2 1
     2    1   19 1
     3    1   20 1
     4    1   21 1
     5    2    3 1
     6    2   22 1
     7    2   23 1
     8    3    4 1
     9    3   24 1
    10    3   25 1
    11    4    5 1
    12    4   26 1
    13    4   27 1
    14    5    6 1
    15    5   28 1
    16    5   29 1
    17    6    7 1
    18    6   30 1
    19    6   31 1
    20    7    8 1
    21    7   32 1
    22    7   44 1
    23    8   13 1
    24    8    9 1
    25    8   33 1
    26    9   10 2
    27    9   34 1
    28   10   11 1
    29   10   17 1
    30   11   12 1
    31   11   16 1
    32   11   35 1
    33   12   13 1
    34   12   15 1
    35   12   36 1
    36   13   14 1
    37   13   37 1
    38   14   38 1
    39   15   39 1
    40   16   40 1
    41   17   18 1
    42   17   41 1
    43   17   42 1
    44   18   43 1
@<TRIPOS>MOLECULE
CHEMBL354193__9
   44    44     0     0     0
SMALL
USER_CHARGES

@<TRIPOS>ATOM
      1 C1         -0.0187    1.5258    0.0104 C.3       1 <0>        -0.1574
      2 C2          0.0021   -0.0041    0.0020 C.3       1 <0>        -0.1264
      3 C3          0.7182   -0.4975   -1.2568 C.3       1 <0>        -0.1220
      4 C4          0.7390   -2.0273   -1.2652 C.3       1 <0>        -0.1180
      5 C5          1.4551   -2.5207   -2.5240 C.3       1 <0>        -0.1479
      6 C6          1.4758   -4.0506   -2.5324 C.3       1 <0>        -0.0145
      7 N1          2.1634   -4.5243   -3.7410 N.4       1 <0>        -0.4971
      8 C7          2.1834   -5.9932   -3.7491 C.3       1 <0>         0.0816
      9 C8          0.7774   -6.5092   -3.8449 C.2       1 <0>        -0.1889
     10 C9          0.4165   -7.4943   -4.6031 C.2       1 <0>        -0.0847
     11 C10         1.3516   -8.2512   -5.5002 C.3       1 <0>         0.1076
     12 C11         2.8022   -7.9961   -5.0852 C.3       1 <0>         0.0884
     13 C12         3.0069   -6.4827   -4.9423 C.3       1 <0>         0.0949
     14 O1          2.5672   -5.8244   -6.1320 O.3       1 <0>        -0.5529
     15 O2          3.6851   -8.5078   -6.0855 O.3       1 <0>        -0.5453
     16 O3          1.1629   -7.8230   -6.8504 O.3       1 <0>        -0.5290
     17 C13        -1.0329   -7.9064   -4.5840 C.3       1 <0>         0.0967
     18 O4         -1.7536   -7.0714   -3.6755 O.3       1 <0>        -0.5747
     19 H1          1.0039    1.9031    0.0027 H         1 <0>         0.0552
     20 H2         -0.5459    1.8868   -0.8726 H         1 <0>         0.0553
     21 H3         -0.5289    1.8773    0.9072 H         1 <0>         0.0586
     22 H4          0.5293   -0.3651    0.8851 H         1 <0>         0.0632
     23 H5         -1.0205   -0.3814    0.0098 H         1 <0>         0.0632
     24 H6          0.1910   -0.1364   -2.1398 H         1 <0>         0.0661
     25 H7          1.7408   -0.1202   -1.2645 H         1 <0>         0.0660
     26 H8          1.2661   -2.3884   -0.3821 H         1 <0>         0.0737
     27 H9         -0.2836   -2.4046   -1.2575 H         1 <0>         0.0739
     28 H10         0.9279   -2.1597   -3.4071 H         1 <0>         0.0875
     29 H11         2.4777   -2.1435   -2.5317 H         1 <0>         0.0872
     30 H12         2.0030   -4.4117   -1.6494 H         1 <0>         0.1316
     31 H13         0.4533   -4.4279   -2.5247 H         1 <0>         0.1340
     32 H14         1.6754   -4.1901   -4.5585 H         1 <0>         0.4368
     33 H15         2.6362   -6.3534   -2.8254 H         1 <0>         0.1556
     34 H16         0.0197   -6.0290   -3.2435 H         1 <0>         0.1512
     35 H17         1.1373   -9.3175   -5.4282 H         1 <0>         0.0785
     36 H18         3.0017   -8.4845   -4.1314 H         1 <0>         0.0882
     37 H19         4.0622   -6.2702   -4.7710 H         1 <0>         0.0940
     38 H20         3.0480   -6.0885   -6.9283 H         1 <0>         0.4146
     39 H21         3.5968   -9.4585   -6.2390 H         1 <0>         0.3981
     40 H22         0.2671   -7.9639   -7.1862 H         1 <0>         0.3839
     41 H23        -1.4533   -7.8027   -5.5844 H         1 <0>         0.0725
     42 H24        -1.1111   -8.9451   -4.2630 H         1 <0>         0.0736
     43 H25        -2.6957   -7.2803   -3.6122 H         1 <0>         0.3985
     44 H26         3.1100   -4.1751   -3.7482 H         1 <0>         0.4286
@<TRIPOS>BOND
     1    1    2 1
     2    1   19 1
     3    1   20 1
     4    1   21 1
     5    2    3 1
     6    2   22 1
     7    2   23 1
     8    3    4 1
     9    3   24 1
    10    3   25 1
    11    4    5 1
    12    4   26 1
    13    4   27 1
    14    5    6 1
    15    5   28 1
    16    5   29 1
    17    6    7 1
    18    6   30 1
    19    6   31 1
    20    7    8 1
    21    7   32 1
    22    7   44 1
    23    8   13 1
    24    8    9 1
    25    8   33 1
    26    9   10 2
    27    9   34 1
    28   10   11 1
    29   10   17 1
    30   11   12 1
    31   11   16 1
    32   11   35 1
    33   12   13 1
    34   12   15 1
    35   12   36 1
    36   13   14 1
    37   13   37 1
    38   14   38 1
    39   15   39 1
    40   16   40 1
    41   17   18 1
    42   17   41 1
    43   17   42 1
    44   18   43 1
@<TRIPOS>MOLECULE
CHEMBL354193__10
   44    44     0     0     0
SMALL
USER_CHARGES

@<TRIPOS>ATOM
      1 C1         -0.0187    1.5258    0.0104 C.3       1 <0>        -0.1574
      2 C2          0.0021   -0.0041    0.0020 C.3       1 <0>        -0.1266
      3 C3          0.7182   -0.4975   -1.2568 C.3       1 <0>        -0.1219
      4 C4          0.7390   -2.0273   -1.2652 C.3       1 <0>        -0.1181
      5 C5          1.4551   -2.5207   -2.5240 C.3       1 <0>        -0.1488
      6 C6          1.4758   -4.0506   -2.5324 C.3       1 <0>        -0.0100
      7 N1          2.1634   -4.5243   -3.7410 N.4       1 <0>        -0.5038
      8 C7          2.1834   -5.9932   -3.7491 C.3       1 <0>         0.0741
      9 C8          0.7774   -6.5092   -3.8449 C.2       1 <0>        -0.1941
     10 C9          0.2499   -6.9797   -4.9292 C.2       1 <0>        -0.0767
     11 C10         0.9738   -7.0847   -6.2396 C.3       1 <0>         0.1013
     12 C11         2.2190   -6.1954   -6.2265 C.3       1 <0>         0.0790
     13 C12         3.0069   -6.4827   -4.9423 C.3       1 <0>         0.1015
     14 O1          3.2356   -7.8883   -4.8238 O.3       1 <0>        -0.5378
     15 O2          3.0315   -6.4899   -7.3645 O.3       1 <0>        -0.5494
     16 O3          0.1053   -6.6682   -7.2952 O.3       1 <0>        -0.5560
     17 C13        -1.1801   -7.4519   -4.8721 C.3       1 <0>         0.0926
     18 O4         -1.6891   -7.2707   -3.5492 O.3       1 <0>        -0.5709
     19 H1          1.0039    1.9031    0.0027 H         1 <0>         0.0553
     20 H2         -0.5459    1.8868   -0.8726 H         1 <0>         0.0551
     21 H3         -0.5289    1.8773    0.9072 H         1 <0>         0.0589
     22 H4          0.5293   -0.3651    0.8851 H         1 <0>         0.0636
     23 H5         -1.0205   -0.3814    0.0098 H         1 <0>         0.0633
     24 H6          0.1910   -0.1364   -2.1398 H         1 <0>         0.0658
     25 H7          1.7408   -0.1202   -1.2645 H         1 <0>         0.0661
     26 H8          1.2661   -2.3884   -0.3821 H         1 <0>         0.0748
     27 H9         -0.2836   -2.4046   -1.2575 H         1 <0>         0.0745
     28 H10         0.9279   -2.1597   -3.4071 H         1 <0>         0.0867
     29 H11         2.4777   -2.1435   -2.5317 H         1 <0>         0.0880
     30 H12         2.0030   -4.4117   -1.6494 H         1 <0>         0.1354
     31 H13         0.4533   -4.4279   -2.5247 H         1 <0>         0.1365
     32 H14         1.6754   -4.1901   -4.5585 H         1 <0>         0.4240
     33 H15         2.6362   -6.3534   -2.8254 H         1 <0>         0.1630
     34 H16         0.1680   -6.4869   -2.9535 H         1 <0>         0.1556
     35 H17         1.2709   -8.1201   -6.4062 H         1 <0>         0.1011
     36 H18         1.9209   -5.1472   -6.2468 H         1 <0>         0.0679
     37 H19         3.9599   -5.9545   -4.9711 H         1 <0>         0.0968
     38 H20         3.7529   -8.2651   -5.5487 H         1 <0>         0.4102
     39 H21         2.5887   -6.3456   -8.2120 H         1 <0>         0.4055
     40 H22        -0.7021   -7.1948   -7.3711 H         1 <0>         0.3942
     41 H23        -1.7815   -6.8752   -5.5749 H         1 <0>         0.0767
     42 H24        -1.2248   -8.5082   -5.1372 H         1 <0>         0.0757
     43 H25        -2.6070   -7.5541   -3.4387 H         1 <0>         0.3992
     44 H26         3.1100   -4.1751   -3.7482 H         1 <0>         0.4291
@<TRIPOS>BOND
     1    1    2 1
     2    1   19 1
     3    1   20 1
     4    1   21 1
     5    2    3 1
     6    2   22 1
     7    2   23 1
     8    3    4 1
     9    3   24 1
    10    3   25 1
    11    4    5 1
    12    4   26 1
    13    4   27 1
    14    5    6 1
    15    5   28 1
    16    5   29 1
    17    6    7 1
    18    6   30 1
    19    6   31 1
    20    7    8 1
    21    7   32 1
    22    7   44 1
    23    8   13 1
    24    8    9 1
    25    8   33 1
    26    9   10 2
    27    9   34 1
    28   10   11 1
    29   10   17 1
    30   11   12 1
    31   11   16 1
    32   11   35 1
    33   12   13 1
    34   12   15 1
    35   12   36 1
    36   13   14 1
    37   13   37 1
    38   14   38 1
    39   15   39 1
    40   16   40 1
    41   17   18 1
    42   17   41 1
    43   17   42 1
    44   18   43 1
@<TRIPOS>MOLECULE
CHEMBL354193__11
   44    44     0     0     0
SMALL
USER_CHARGES

@<TRIPOS>ATOM
      1 C1         -0.0187    1.5258    0.0104 C.3       1 <0>        -0.1573
      2 C2          0.0021   -0.0041    0.0020 C.3       1 <0>        -0.1265
      3 C3          0.7182   -0.4975   -1.2568 C.3       1 <0>        -0.1218
      4 C4          0.7390   -2.0273   -1.2652 C.3       1 <0>        -0.1182
      5 C5          1.4551   -2.5207   -2.5240 C.3       1 <0>        -0.1474
      6 C6          1.4758   -4.0506   -2.5324 C.3       1 <0>        -0.0144
      7 N1          2.1634   -4.5243   -3.7410 N.4       1 <0>        -0.5000
      8 C7          2.1834   -5.9932   -3.7491 C.3       1 <0>         0.0855
      9 C8          0.7774   -6.5092   -3.8449 C.2       1 <0>        -0.1756
     10 C9          0.4165   -7.4943   -4.6031 C.2       1 <0>        -0.0893
     11 C10         1.3517   -8.2518   -5.4995 C.3       1 <0>         0.1100
     12 C11         2.8023   -7.9964   -5.0844 C.3       1 <0>         0.0857
     13 C12         3.0069   -6.4827   -4.9423 C.3       1 <0>         0.0972
     14 O1          2.5672   -5.8244   -6.1320 O.3       1 <0>        -0.5478
     15 O2          3.0636   -8.6359   -3.8335 O.3       1 <0>        -0.5522
     16 O3          1.1633   -7.8246   -6.8501 O.3       1 <0>        -0.5396
     17 C13        -1.0329   -7.9064   -4.5840 C.3       1 <0>         0.0976
     18 O4         -1.7536   -7.0714   -3.6755 O.3       1 <0>        -0.5743
     19 H1          1.0039    1.9031    0.0027 H         1 <0>         0.0552
     20 H2         -0.5459    1.8868   -0.8726 H         1 <0>         0.0552
     21 H3         -0.5289    1.8773    0.9072 H         1 <0>         0.0586
     22 H4          0.5293   -0.3651    0.8851 H         1 <0>         0.0632
     23 H5         -1.0205   -0.3814    0.0098 H         1 <0>         0.0632
     24 H6          0.1910   -0.1364   -2.1398 H         1 <0>         0.0659
     25 H7          1.7408   -0.1202   -1.2645 H         1 <0>         0.0659
     26 H8          1.2661   -2.3884   -0.3821 H         1 <0>         0.0737
     27 H9         -0.2836   -2.4046   -1.2575 H         1 <0>         0.0738
     28 H10         0.9279   -2.1597   -3.4071 H         1 <0>         0.0868
     29 H11         2.4777   -2.1435   -2.5317 H         1 <0>         0.0867
     30 H12         2.0030   -4.4117   -1.6494 H         1 <0>         0.1312
     31 H13         0.4533   -4.4279   -2.5247 H         1 <0>         0.1332
     32 H14         1.6754   -4.1901   -4.5585 H         1 <0>         0.4344
     33 H15         2.6362   -6.3534   -2.8254 H         1 <0>         0.1601
     34 H16         0.0197   -6.0290   -3.2435 H         1 <0>         0.1479
     35 H17         1.1375   -9.3181   -5.4268 H         1 <0>         0.0787
     36 H18         3.4759   -8.3873   -5.8470 H         1 <0>         0.0941
     37 H19         4.0622   -6.2702   -4.7710 H         1 <0>         0.0947
     38 H20         3.0480   -6.0885   -6.9283 H         1 <0>         0.4101
     39 H21         2.9371   -9.5945   -3.8478 H         1 <0>         0.3998
     40 H22         0.2676   -7.9657   -7.1859 H         1 <0>         0.3898
     41 H23        -1.4533   -7.8027   -5.5844 H         1 <0>         0.0701
     42 H24        -1.1111   -8.9451   -4.2630 H         1 <0>         0.0716
     43 H25        -2.6957   -7.2803   -3.6122 H         1 <0>         0.3975
     44 H26         3.1100   -4.1751   -3.7482 H         1 <0>         0.4272
@<TRIPOS>BOND
     1    1    2 1
     2    1   19 1
     3    1   20 1
     4    1   21 1
     5    2    3 1
     6    2   22 1
     7    2   23 1
     8    3    4 1
     9    3   24 1
    10    3   25 1
    11    4    5 1
    12    4   26 1
    13    4   27 1
    14    5    6 1
    15    5   28 1
    16    5   29 1
    17    6    7 1
    18    6   30 1
    19    6   31 1
    20    7    8 1
    21    7   32 1
    22    7   44 1
    23    8   13 1
    24    8    9 1
    25    8   33 1
    26    9   10 2
    27    9   34 1
    28   10   11 1
    29   10   17 1
    30   11   12 1
    31   11   16 1
    32   11   35 1
    33   12   13 1
    34   12   15 1
    35   12   36 1
    36   13   14 1
    37   13   37 1
    38   14   38 1
    39   15   39 1
    40   16   40 1
    41   17   18 1
    42   17   41 1
    43   17   42 1
    44   18   43 1
@<TRIPOS>MOLECULE
CHEMBL354193__12
   44    44     0     0     0
SMALL
USER_CHARGES

@<TRIPOS>ATOM
      1 C1         -0.0187    1.5258    0.0104 C.3       1 <0>        -0.1574
      2 C2          0.0021   -0.0041    0.0020 C.3       1 <0>        -0.1266
      3 C3          0.7182   -0.4975   -1.2568 C.3       1 <0>        -0.1219
      4 C4          0.7390   -2.0273   -1.2652 C.3       1 <0>        -0.1183
      5 C5          1.4551   -2.5207   -2.5240 C.3       1 <0>        -0.1480
      6 C6          1.4758   -4.0506   -2.5324 C.3       1 <0>        -0.0137
      7 N1          2.1634   -4.5243   -3.7410 N.4       1 <0>        -0.5009
      8 C7          2.1834   -5.9932   -3.7491 C.3       1 <0>         0.0808
      9 C8          0.7774   -6.5092   -3.8449 C.2       1 <0>        -0.2010
     10 C9          0.4165   -7.4943   -4.6031 C.2       1 <0>        -0.0848
     11 C10         1.3517   -8.2518   -5.4995 C.3       1 <0>         0.0990
     12 C11         2.8023   -7.9964   -5.0844 C.3       1 <0>         0.0943
     13 C12         3.0069   -6.4827   -4.9423 C.3       1 <0>         0.0981
     14 O1          4.3904   -6.2041   -4.7177 O.3       1 <0>        -0.5577
     15 O2          3.6854   -8.5088   -6.0842 O.3       1 <0>        -0.5545
     16 O3          1.0709   -9.6497   -5.4042 O.3       1 <0>        -0.5493
     17 C13        -1.0329   -7.9064   -4.5840 C.3       1 <0>         0.0933
     18 O4         -1.7536   -7.0714   -3.6755 O.3       1 <0>        -0.5734
     19 H1          1.0039    1.9031    0.0027 H         1 <0>         0.0553
     20 H2         -0.5459    1.8868   -0.8726 H         1 <0>         0.0551
     21 H3         -0.5289    1.8773    0.9072 H         1 <0>         0.0587
     22 H4          0.5293   -0.3651    0.8851 H         1 <0>         0.0634
     23 H5         -1.0205   -0.3814    0.0098 H         1 <0>         0.0632
     24 H6          0.1910   -0.1364   -2.1398 H         1 <0>         0.0658
     25 H7          1.7408   -0.1202   -1.2645 H         1 <0>         0.0662
     26 H8          1.2661   -2.3884   -0.3821 H         1 <0>         0.0743
     27 H9         -0.2836   -2.4046   -1.2575 H         1 <0>         0.0742
     28 H10         0.9279   -2.1597   -3.4071 H         1 <0>         0.0872
     29 H11         2.4777   -2.1435   -2.5317 H         1 <0>         0.0880
     30 H12         2.0030   -4.4117   -1.6494 H         1 <0>         0.1334
     31 H13         0.4533   -4.4279   -2.5247 H         1 <0>         0.1351
     32 H14         1.6754   -4.1901   -4.5585 H         1 <0>         0.4262
     33 H15         2.6362   -6.3534   -2.8254 H         1 <0>         0.1571
     34 H16         0.0197   -6.0290   -3.2435 H         1 <0>         0.1594
     35 H17         1.2080   -7.9259   -6.5297 H         1 <0>         0.0937
     36 H18         3.0016   -8.4842   -4.1302 H         1 <0>         0.0878
     37 H19         2.6715   -5.9806   -5.8497 H         1 <0>         0.0901
     38 H20         4.9707   -6.4890   -5.4369 H         1 <0>         0.4162
     39 H21         3.5971   -9.4596   -6.2370 H         1 <0>         0.4071
     40 H22         0.1702   -9.8884   -5.6627 H         1 <0>         0.3928
     41 H23        -1.4533   -7.8027   -5.5844 H         1 <0>         0.0762
     42 H24        -1.1111   -8.9451   -4.2630 H         1 <0>         0.0789
     43 H25        -2.6957   -7.2803   -3.6122 H         1 <0>         0.4003
     44 H26         3.1100   -4.1751   -3.7482 H         1 <0>         0.4364
@<TRIPOS>BOND
     1    1    2 1
     2    1   19 1
     3    1   20 1
     4    1   21 1
     5    2    3 1
     6    2   22 1
     7    2   23 1
     8    3    4 1
     9    3   24 1
    10    3   25 1
    11    4    5 1
    12    4   26 1
    13    4   27 1
    14    5    6 1
    15    5   28 1
    16    5   29 1
    17    6    7 1
    18    6   30 1
    19    6   31 1
    20    7    8 1
    21    7   32 1
    22    7   44 1
    23    8   13 1
    24    8    9 1
    25    8   33 1
    26    9   10 2
    27    9   34 1
    28   10   11 1
    29   10   17 1
    30   11   12 1
    31   11   16 1
    32   11   35 1
    33   12   13 1
    34   12   15 1
    35   12   36 1
    36   13   14 1
    37   13   37 1
    38   14   38 1
    39   15   39 1
    40   16   40 1
    41   17   18 1
    42   17   41 1
    43   17   42 1
    44   18   43 1
@<TRIPOS>MOLECULE
CHEMBL354193__13
   44    44     0     0     0
SMALL
USER_CHARGES

@<TRIPOS>ATOM
      1 C1         -0.0187    1.5258    0.0104 C.3       1 <0>        -0.1574
      2 C2          0.0021   -0.0041    0.0020 C.3       1 <0>        -0.1265
      3 C3          0.7182   -0.4975   -1.2568 C.3       1 <0>        -0.1219
      4 C4          0.7390   -2.0273   -1.2652 C.3       1 <0>        -0.1182
      5 C5          1.4551   -2.5207   -2.5240 C.3       1 <0>        -0.1477
      6 C6          1.4758   -4.0506   -2.5324 C.3       1 <0>        -0.0147
      7 N1          2.1634   -4.5243   -3.7410 N.4       1 <0>        -0.4978
      8 C7          2.1834   -5.9932   -3.7491 C.3       1 <0>         0.0830
      9 C8          0.7774   -6.5092   -3.8449 C.2       1 <0>        -0.2013
     10 C9          0.4165   -7.4943   -4.6031 C.2       1 <0>        -0.0769
     11 C10         1.3516   -8.2512   -5.5002 C.3       1 <0>         0.1045
     12 C11         2.8022   -7.9961   -5.0852 C.3       1 <0>         0.0919
     13 C12         3.0069   -6.4827   -4.9423 C.3       1 <0>         0.0955
     14 O1          2.5672   -5.8244   -6.1320 O.3       1 <0>        -0.5666
     15 O2          3.6851   -8.5078   -6.0855 O.3       1 <0>        -0.5549
     16 O3          1.0707   -9.6491   -5.4058 O.3       1 <0>        -0.5542
     17 C13        -1.0329   -7.9064   -4.5840 C.3       1 <0>         0.0935
     18 O4         -1.7536   -7.0714   -3.6755 O.3       1 <0>        -0.5733
     19 H1          1.0039    1.9031    0.0027 H         1 <0>         0.0552
     20 H2         -0.5459    1.8868   -0.8726 H         1 <0>         0.0552
     21 H3         -0.5289    1.8773    0.9072 H         1 <0>         0.0587
     22 H4          0.5293   -0.3651    0.8851 H         1 <0>         0.0633
     23 H5         -1.0205   -0.3814    0.0098 H         1 <0>         0.0633
     24 H6          0.1910   -0.1364   -2.1398 H         1 <0>         0.0660
     25 H7          1.7408   -0.1202   -1.2645 H         1 <0>         0.0660
     26 H8          1.2661   -2.3884   -0.3821 H         1 <0>         0.0739
     27 H9         -0.2836   -2.4046   -1.2575 H         1 <0>         0.0741
     28 H10         0.9279   -2.1597   -3.4071 H         1 <0>         0.0874
     29 H11         2.4777   -2.1435   -2.5317 H         1 <0>         0.0873
     30 H12         2.0030   -4.4117   -1.6494 H         1 <0>         0.1322
     31 H13         0.4533   -4.4279   -2.5247 H         1 <0>         0.1348
     32 H14         1.6754   -4.1901   -4.5585 H         1 <0>         0.4360
     33 H15         2.6362   -6.3534   -2.8254 H         1 <0>         0.1584
     34 H16         0.0197   -6.0290   -3.2435 H         1 <0>         0.1531
     35 H17         1.2076   -7.9246   -6.5301 H         1 <0>         0.0953
     36 H18         3.0017   -8.4845   -4.1314 H         1 <0>         0.0870
     37 H19         4.0622   -6.2702   -4.7710 H         1 <0>         0.1035
     38 H20         3.0480   -6.0885   -6.9283 H         1 <0>         0.4155
     39 H21         3.5968   -9.4585   -6.2390 H         1 <0>         0.4060
     40 H22         0.1700   -9.8877   -5.6643 H         1 <0>         0.3918
     41 H23        -1.4533   -7.8027   -5.5844 H         1 <0>         0.0746
     42 H24        -1.1111   -8.9451   -4.2630 H         1 <0>         0.0768
     43 H25        -2.6957   -7.2803   -3.6122 H         1 <0>         0.3989
     44 H26         3.1100   -4.1751   -3.7482 H         1 <0>         0.4287
@<TRIPOS>BOND
     1    1    2 1
     2    1   19 1
     3    1   20 1
     4    1   21 1
     5    2    3 1
     6    2   22 1
     7    2   23 1
     8    3    4 1
     9    3   24 1
    10    3   25 1
    11    4    5 1
    12    4   26 1
    13    4   27 1
    14    5    6 1
    15    5   28 1
    16    5   29 1
    17    6    7 1
    18    6   30 1
    19    6   31 1
    20    7    8 1
    21    7   32 1
    22    7   44 1
    23    8   13 1
    24    8    9 1
    25    8   33 1
    26    9   10 2
    27    9   34 1
    28   10   11 1
    29   10   17 1
    30   11   12 1
    31   11   16 1
    32   11   35 1
    33   12   13 1
    34   12   15 1
    35   12   36 1
    36   13   14 1
    37   13   37 1
    38   14   38 1
    39   15   39 1
    40   16   40 1
    41   17   18 1
    42   17   41 1
    43   17   42 1
    44   18   43 1
@<TRIPOS>MOLECULE
CHEMBL354193__14
   44    44     0     0     0
SMALL
USER_CHARGES

@<TRIPOS>ATOM
      1 C1         -0.0187    1.5258    0.0104 C.3       1 <0>        -0.1573
      2 C2          0.0021   -0.0041    0.0020 C.3       1 <0>        -0.1267
      3 C3          0.7182   -0.4975   -1.2568 C.3       1 <0>        -0.1216
      4 C4          0.7390   -2.0273   -1.2652 C.3       1 <0>        -0.1185
      5 C5          1.4551   -2.5207   -2.5240 C.3       1 <0>        -0.1476
      6 C6          1.4758   -4.0506   -2.5324 C.3       1 <0>        -0.0133
      7 N1          2.1634   -4.5243   -3.7410 N.4       1 <0>        -0.5038
      8 C7          2.1834   -5.9932   -3.7491 C.3       1 <0>         0.0840
      9 C8          0.7774   -6.5092   -3.8449 C.2       1 <0>        -0.1882
     10 C9          0.4165   -7.4943   -4.6031 C.2       1 <0>        -0.0892
     11 C10         1.3516   -8.2512   -5.5002 C.3       1 <0>         0.1004
     12 C11         2.8022   -7.9961   -5.0852 C.3       1 <0>         0.0929
     13 C12         3.0069   -6.4827   -4.9423 C.3       1 <0>         0.0967
     14 O1          4.3904   -6.2041   -4.7177 O.3       1 <0>        -0.5541
     15 O2          3.0638   -8.6365   -3.8348 O.3       1 <0>        -0.5478
     16 O3          1.0707   -9.6491   -5.4058 O.3       1 <0>        -0.5494
     17 C13        -1.0329   -7.9064   -4.5840 C.3       1 <0>         0.0943
     18 O4         -1.7536   -7.0714   -3.6755 O.3       1 <0>        -0.5733
     19 H1          1.0039    1.9031    0.0027 H         1 <0>         0.0553
     20 H2         -0.5459    1.8868   -0.8726 H         1 <0>         0.0550
     21 H3         -0.5289    1.8773    0.9072 H         1 <0>         0.0587
     22 H4          0.5293   -0.3651    0.8851 H         1 <0>         0.0635
     23 H5         -1.0205   -0.3814    0.0098 H         1 <0>         0.0632
     24 H6          0.1910   -0.1364   -2.1398 H         1 <0>         0.0656
     25 H7          1.7408   -0.1202   -1.2645 H         1 <0>         0.0660
     26 H8          1.2661   -2.3884   -0.3821 H         1 <0>         0.0743
     27 H9         -0.2836   -2.4046   -1.2575 H         1 <0>         0.0740
     28 H10         0.9279   -2.1597   -3.4071 H         1 <0>         0.0865
     29 H11         2.4777   -2.1435   -2.5317 H         1 <0>         0.0874
     30 H12         2.0030   -4.4117   -1.6494 H         1 <0>         0.1328
     31 H13         0.4533   -4.4279   -2.5247 H         1 <0>         0.1341
     32 H14         1.6754   -4.1901   -4.5585 H         1 <0>         0.4235
     33 H15         2.6362   -6.3534   -2.8254 H         1 <0>         0.1619
     34 H16         0.0197   -6.0290   -3.2435 H         1 <0>         0.1555
     35 H17         1.2076   -7.9246   -6.5301 H         1 <0>         0.0904
     36 H18         3.4756   -8.3864   -5.8482 H         1 <0>         0.0917
     37 H19         2.6715   -5.9806   -5.8497 H         1 <0>         0.0959
     38 H20         4.9707   -6.4890   -5.4369 H         1 <0>         0.4079
     39 H21         2.9373   -9.5950   -3.8498 H         1 <0>         0.4014
     40 H22         0.1700   -9.8877   -5.6643 H         1 <0>         0.3939
     41 H23        -1.4533   -7.8027   -5.5844 H         1 <0>         0.0735
     42 H24        -1.1111   -8.9451   -4.2630 H         1 <0>         0.0767
     43 H25        -2.6957   -7.2803   -3.6122 H         1 <0>         0.3991
     44 H26         3.1100   -4.1751   -3.7482 H         1 <0>         0.4348
@<TRIPOS>BOND
     1    1    2 1
     2    1   19 1
     3    1   20 1
     4    1   21 1
     5    2    3 1
     6    2   22 1
     7    2   23 1
     8    3    4 1
     9    3   24 1
    10    3   25 1
    11    4    5 1
    12    4   26 1
    13    4   27 1
    14    5    6 1
    15    5   28 1
    16    5   29 1
    17    6    7 1
    18    6   30 1
    19    6   31 1
    20    7    8 1
    21    7   32 1
    22    7   44 1
    23    8   13 1
    24    8    9 1
    25    8   33 1
    26    9   10 2
    27    9   34 1
    28   10   11 1
    29   10   17 1
    30   11   12 1
    31   11   16 1
    32   11   35 1
    33   12   13 1
    34   12   15 1
    35   12   36 1
    36   13   14 1
    37   13   37 1
    38   14   38 1
    39   15   39 1
    40   16   40 1
    41   17   18 1
    42   17   41 1
    43   17   42 1
    44   18   43 1
@<TRIPOS>MOLECULE
CHEMBL354193__15
   44    44     0     0     0
SMALL
USER_CHARGES

@<TRIPOS>ATOM
      1 C1         -0.0187    1.5258    0.0104 C.3       1 <0>        -0.1573
      2 C2          0.0021   -0.0041    0.0020 C.3       1 <0>        -0.1266
      3 C3          0.7182   -0.4975   -1.2568 C.3       1 <0>        -0.1217
      4 C4          0.7390   -2.0273   -1.2652 C.3       1 <0>        -0.1185
      5 C5          1.4551   -2.5207   -2.5240 C.3       1 <0>        -0.1473
      6 C6          1.4758   -4.0506   -2.5324 C.3       1 <0>        -0.0144
      7 N1          2.1634   -4.5243   -3.7410 N.4       1 <0>        -0.5007
      8 C7          2.1834   -5.9932   -3.7491 C.3       1 <0>         0.0873
      9 C8          0.7774   -6.5092   -3.8449 C.2       1 <0>        -0.1882
     10 C9          0.4165   -7.4943   -4.6031 C.2       1 <0>        -0.0813
     11 C10         1.3516   -8.2512   -5.5002 C.3       1 <0>         0.1053
     12 C11         2.8022   -7.9961   -5.0852 C.3       1 <0>         0.0922
     13 C12         3.0069   -6.4827   -4.9423 C.3       1 <0>         0.0940
     14 O1          2.5672   -5.8244   -6.1320 O.3       1 <0>        -0.5620
     15 O2          3.0638   -8.6365   -3.8348 O.3       1 <0>        -0.5543
     16 O3          1.0707   -9.6491   -5.4058 O.3       1 <0>        -0.5541
     17 C13        -1.0329   -7.9064   -4.5840 C.3       1 <0>         0.0944
     18 O4         -1.7536   -7.0714   -3.6755 O.3       1 <0>        -0.5731
     19 H1          1.0039    1.9031    0.0027 H         1 <0>         0.0552
     20 H2         -0.5459    1.8868   -0.8726 H         1 <0>         0.0551
     21 H3         -0.5289    1.8773    0.9072 H         1 <0>         0.0586
     22 H4          0.5293   -0.3651    0.8851 H         1 <0>         0.0633
     23 H5         -1.0205   -0.3814    0.0098 H         1 <0>         0.0633
     24 H6          0.1910   -0.1364   -2.1398 H         1 <0>         0.0658
     25 H7          1.7408   -0.1202   -1.2645 H         1 <0>         0.0658
     26 H8          1.2661   -2.3884   -0.3821 H         1 <0>         0.0739
     27 H9         -0.2836   -2.4046   -1.2575 H         1 <0>         0.0740
     28 H10         0.9279   -2.1597   -3.4071 H         1 <0>         0.0868
     29 H11         2.4777   -2.1435   -2.5317 H         1 <0>         0.0867
     30 H12         2.0030   -4.4117   -1.6494 H         1 <0>         0.1317
     31 H13         0.4533   -4.4279   -2.5247 H         1 <0>         0.1338
     32 H14         1.6754   -4.1901   -4.5585 H         1 <0>         0.4334
     33 H15         2.6362   -6.3534   -2.8254 H         1 <0>         0.1625
     34 H16         0.0197   -6.0290   -3.2435 H         1 <0>         0.1491
     35 H17         1.2076   -7.9246   -6.5301 H         1 <0>         0.0918
     36 H18         3.4756   -8.3864   -5.8482 H         1 <0>         0.0908
     37 H19         4.0622   -6.2702   -4.7710 H         1 <0>         0.1032
     38 H20         3.0480   -6.0885   -6.9283 H         1 <0>         0.4108
     39 H21         2.9373   -9.5950   -3.8498 H         1 <0>         0.4062
     40 H22         0.1700   -9.8877   -5.6643 H         1 <0>         0.3930
     41 H23        -1.4533   -7.8027   -5.5844 H         1 <0>         0.0719
     42 H24        -1.1111   -8.9451   -4.2630 H         1 <0>         0.0746
     43 H25        -2.6957   -7.2803   -3.6122 H         1 <0>         0.3977
     44 H26         3.1100   -4.1751   -3.7482 H         1 <0>         0.4272
@<TRIPOS>BOND
     1    1    2 1
     2    1   19 1
     3    1   20 1
     4    1   21 1
     5    2    3 1
     6    2   22 1
     7    2   23 1
     8    3    4 1
     9    3   24 1
    10    3   25 1
    11    4    5 1
    12    4   26 1
    13    4   27 1
    14    5    6 1
    15    5   28 1
    16    5   29 1
    17    6    7 1
    18    6   30 1
    19    6   31 1
    20    7    8 1
    21    7   32 1
    22    7   44 1
    23    8   13 1
    24    8    9 1
    25    8   33 1
    26    9   10 2
    27    9   34 1
    28   10   11 1
    29   10   17 1
    30   11   12 1
    31   11   16 1
    32   11   35 1
    33   12   13 1
    34   12   15 1
    35   12   36 1
    36   13   14 1
    37   13   37 1
    38   14   38 1
    39   15   39 1
    40   16   40 1
    41   17   18 1
    42   17   41 1
    43   17   42 1
    44   18   43 1
@<TRIPOS>MOLECULE
CHEMBL441134
   49    51     0     0     0
SMALL
USER_CHARGES

@<TRIPOS>ATOM
      1 C1         -1.9058    0.9813   -1.4854 C.3       1 <0>        -0.1532
      2 C2         -1.3925   -0.4091   -1.1056 C.3       1 <0>         0.0578
      3 O1         -0.2583   -0.7347   -1.9117 O.3       1 <0>        -0.3203
      4 C3          0.3229   -1.9457   -1.6993 C.ar      1 <0>         0.0980
      5 C4         -0.1906   -2.8037   -0.7405 C.ar      1 <0>        -0.1886
      6 C5          0.4013   -4.0346   -0.5257 C.ar      1 <0>        -0.1012
      7 C6          1.5059   -4.4134   -1.2661 C.ar      1 <0>        -0.1359
      8 C7          2.0240   -3.5634   -2.2248 C.ar      1 <0>        -0.0900
      9 C8          1.4325   -2.3288   -2.4493 C.ar      1 <0>         0.1394
     10 N1          1.9525   -1.4677   -3.4242 N.pl3     1 <0>        -0.6168
     11 C9          2.6758   -1.9802   -4.4833 C.ar      1 <0>         0.6518
     12 N2          2.7752   -3.2962   -4.6456 N.ar      1 <0>        -0.6653
     13 C10         3.4713   -3.7893   -5.6648 C.ar      1 <0>         0.6506
     14 N3          4.0686   -2.9668   -6.5218 N.ar      1 <0>        -0.6738
     15 C11         3.9692   -1.6512   -6.3596 C.ar      1 <0>         0.6729
     16 N4          3.2681   -1.1578   -5.3435 N.ar      1 <0>        -0.6719
     17 N5          4.5897   -0.7975   -7.2489 N.pl3     1 <0>        -0.5818
     18 C12         5.3827   -1.2060   -8.4176 C.3       1 <0>         0.1250
     19 C13         5.8967    0.0817   -9.0954 C.3       1 <0>        -0.1341
     20 C14         5.8362    1.1256   -7.9491 C.3       1 <0>        -0.1352
     21 C15         4.5616    0.6753   -7.1881 C.3       1 <0>         0.1217
     22 N6          3.5745   -5.1552   -5.8334 N.pl3     1 <0>        -0.6803
     23 C16         2.9167   -6.0616   -4.8888 C.3       1 <0>         0.1374
     24 C17         3.1862   -7.5103   -5.3003 C.3       1 <0>         0.0612
     25 O2          4.5828   -7.7877   -5.1802 O.3       1 <0>        -0.5708
     26 H1         -1.1188    1.7170   -1.3194 H         1 <0>         0.0665
     27 H2         -2.1934    0.9878   -2.5367 H         1 <0>         0.0660
     28 H3         -2.7709    1.2297   -0.8705 H         1 <0>         0.0790
     29 H4         -1.1049   -0.4155   -0.0543 H         1 <0>         0.0623
     30 H5         -2.1794   -1.1448   -1.2715 H         1 <0>         0.0619
     31 H6         -1.0533   -2.5109   -0.1605 H         1 <0>         0.1297
     32 H7          0.0000   -4.7018    0.2227 H         1 <0>         0.1241
     33 H8          1.9652   -5.3757   -1.0945 H         1 <0>         0.1254
     34 H9          2.8869   -3.8618   -2.8017 H         1 <0>         0.1577
     35 H10         1.8046   -0.5115   -3.3554 H         1 <0>         0.4278
     36 H11         6.2258   -1.8184   -8.0977 H         1 <0>         0.0700
     37 H12         4.7573   -1.7664   -9.1125 H         1 <0>         0.0688
     38 H13         6.9209   -0.0488   -9.4445 H         1 <0>         0.0854
     39 H14         5.2421    0.3727   -9.9169 H         1 <0>         0.0782
     40 H15         6.7189    1.0592   -7.3132 H         1 <0>         0.0775
     41 H16         5.7168    2.1341   -8.3451 H         1 <0>         0.0876
     42 H17         3.6677    1.0583   -7.6804 H         1 <0>         0.0685
     43 H18         4.5995    1.0129   -6.1524 H         1 <0>         0.0827
     44 H19         4.0825   -5.5152   -6.5772 H         1 <0>         0.4181
     45 H20         3.3094   -5.8895   -3.8867 H         1 <0>         0.0769
     46 H21         1.8427   -5.8759   -4.8950 H         1 <0>         0.0844
     47 H22         2.6251   -8.1827   -4.6513 H         1 <0>         0.0673
     48 H23         2.8739   -7.6585   -6.3341 H         1 <0>         0.0540
     49 H24         4.8270   -8.6907   -5.4254 H         1 <0>         0.3836
@<TRIPOS>BOND
     1    1    2 1
     2    1   26 1
     3    1   27 1
     4    1   28 1
     5    2    3 1
     6    2   29 1
     7    2   30 1
     8    3    4 1
     9    4    9 ar
    10    4    5 ar
    11    5    6 ar
    12    5   31 1
    13    6    7 ar
    14    6   32 1
    15    7    8 ar
    16    7   33 1
    17    8    9 ar
    18    8   34 1
    19    9   10 1
    20   10   11 1
    21   10   35 1
    22   11   16 ar
    23   11   12 ar
    24   12   13 ar
    25   13   14 ar
    26   13   22 1
    27   14   15 ar
    28   15   16 ar
    29   15   17 1
    30   17   21 1
    31   17   18 1
    32   18   19 1
    33   18   36 1
    34   18   37 1
    35   19   20 1
    36   19   38 1
    37   19   39 1
    38   20   21 1
    39   20   40 1
    40   20   41 1
    41   21   42 1
    42   21   43 1
    43   22   23 1
    44   22   44 1
    45   23   24 1
    46   23   45 1
    47   23   46 1
    48   24   25 1
    49   24   47 1
    50   24   48 1
    51   25   49 1
@<TRIPOS>MOLECULE
CHEMBL1089185
   30    30     0     0     0
SMALL
USER_CHARGES

@<TRIPOS>ATOM
      1 C1         -0.0187    1.5258    0.0104 C.3       1 <0>        -0.1585
      2 C2          0.0021   -0.0041    0.0020 C.3       1 <0>        -0.1374
      3 C3          0.7421   -0.5109    1.2415 C.3       1 <0>        -0.1430
      4 C4          0.7628   -2.0407    1.2331 C.3       1 <0>         0.0441
      5 H1         -0.2569   -2.4170    1.1513 H         1 <0>         0.1530
      6 C5          1.3905   -2.5489    2.5329 C.3       1 <0>         0.1034
      7 H2          0.8032   -2.1990    3.3818 H         1 <0>         0.1080
      8 C6          1.4088   -4.0801    2.5199 C.3       1 <0>         0.0673
      9 H3          1.9061   -4.4463    3.4181 H         1 <0>         0.0960
     10 C7          2.1697   -4.5613    1.2811 C.3       1 <0>         0.0573
     11 H4          2.1393   -5.6499    1.2353 H         1 <0>         0.1038
     12 C8          1.5131   -3.9786    0.0277 C.3       1 <0>        -0.0402
     13 N1          1.5512   -2.5125    0.0884 N.4       1 <0>        -0.4972
     14 O1          3.5283   -4.1246    1.3560 O.3       1 <0>        -0.5405
     15 O2          0.0684   -4.5737    2.4810 O.3       1 <0>        -0.5497
     16 O3          2.7273   -2.0557    2.6418 O.3       1 <0>        -0.5443
     17 H5          1.0039    1.9031    0.0027 H         1 <0>         0.0613
     18 H6         -0.5459    1.8868   -0.8726 H         1 <0>         0.0665
     19 H7         -0.5289    1.8773    0.9072 H         1 <0>         0.0649
     20 H8         -1.0205   -0.3814    0.0098 H         1 <0>         0.0777
     21 H9          0.5123   -0.3556   -0.8948 H         1 <0>         0.0550
     22 H10         1.7647   -0.1336    1.2338 H         1 <0>         0.0972
     23 H11         0.2319   -0.1594    2.1383 H         1 <0>         0.1117
     24 H12         2.0523   -4.3194   -0.8562 H         1 <0>         0.1369
     25 H13         0.4772   -4.3131   -0.0282 H         1 <0>         0.1434
     26 H14         1.1665   -2.1319   -0.7633 H         1 <0>         0.4271
     27 H15         4.0703   -4.3945    0.6020 H         1 <0>         0.3940
     28 H16         0.0047   -5.5386    2.4709 H         1 <0>         0.4002
     29 H17         3.1869   -2.3392    3.4440 H         1 <0>         0.4066
     30 H18         2.5069   -2.2053    0.1900 H         1 <0>         0.4354
@<TRIPOS>BOND
     1    1    2 1
     2    1   17 1
     3    1   18 1
     4    1   19 1
     5    2    3 1
     6    2   20 1
     7    2   21 1
     8    3    4 1
     9    3   22 1
    10    3   23 1
    11    4    5 1
    12    4   13 1
    13    4    6 1
    14    6    7 1
    15    6    8 1
    16    6   16 1
    17    8    9 1
    18    8   10 1
    19    8   15 1
    20   10   11 1
    21   10   12 1
    22   10   14 1
    23   12   13 1
    24   12   24 1
    25   12   25 1
    26   13   26 1
    27   13   30 1
    28   14   27 1
    29   15   28 1
    30   16   29 1
@<TRIPOS>MOLECULE
CHEMBL426933
   80    80     0     0     0
SMALL
USER_CHARGES

@<TRIPOS>ATOM
      1 C1         -0.0187    1.5258    0.0104 C.3       1 <0>        -0.1546
      2 C2          0.0021   -0.0041    0.0020 C.3       1 <0>        -0.1261
      3 C3         -1.4333   -0.5336    0.0129 C.3       1 <0>        -0.1213
      4 C4         -1.4126   -2.0635    0.0045 C.3       1 <0>        -0.1212
      5 C5         -2.8479   -2.5931    0.0153 C.3       1 <0>        -0.1207
      6 C6         -2.8272   -4.1229    0.0069 C.3       1 <0>        -0.1207
      7 C7         -4.2626   -4.6525    0.0178 C.3       1 <0>        -0.1207
      8 C8         -4.2418   -6.1823    0.0094 C.3       1 <0>        -0.1207
      9 C9         -5.6772   -6.7119    0.0202 C.3       1 <0>        -0.1207
     10 C10        -5.6565   -8.2417    0.0118 C.3       1 <0>        -0.1208
     11 C11        -7.0918   -8.7713    0.0227 C.3       1 <0>        -0.1208
     12 C12        -7.0711  -10.3012    0.0143 C.3       1 <0>        -0.1211
     13 C13        -8.5065  -10.8307    0.0251 C.3       1 <0>        -0.1210
     14 C14        -8.4857  -12.3606    0.0167 C.3       1 <0>        -0.1217
     15 C15        -9.9211  -12.8902    0.0276 C.3       1 <0>        -0.1210
     16 C16        -9.9004  -14.4200    0.0191 C.3       1 <0>        -0.1180
     17 C17       -11.3358  -14.9496    0.0300 C.3       1 <0>        -0.1473
     18 C18       -11.3150  -16.4794    0.0216 C.3       1 <0>        -0.0146
     19 N1        -12.6932  -16.9879    0.0320 N.4       1 <0>        -0.5007
     20 C19       -12.6732  -18.4567    0.0239 C.3       1 <0>         0.0873
     21 C20       -12.0650  -18.9389   -1.2604 C.2       1 <0>        -0.1881
     22 C21       -12.5297  -19.9257   -1.9574 C.2       1 <0>        -0.0813
     23 C22       -13.7477  -20.7188   -1.5840 C.3       1 <0>         0.1053
     24 C23       -14.0916  -20.4939   -0.1099 C.3       1 <0>         0.0922
     25 C24       -14.1032  -18.9841    0.1606 C.3       1 <0>         0.0940
     26 O1        -14.9484  -18.3327   -0.7898 O.3       1 <0>        -0.5620
     27 O2        -13.1077  -21.1221    0.7142 O.3       1 <0>        -0.5543
     28 O3        -13.4946  -22.1078   -1.8047 O.3       1 <0>        -0.5540
     29 C25       -11.8025  -20.3013   -3.2228 C.3       1 <0>         0.0945
     30 O4        -10.6800  -19.4353   -3.4020 O.3       1 <0>        -0.5731
     31 H1          1.0039    1.9031    0.0027 H         1 <0>         0.0541
     32 H2         -0.5459    1.8868   -0.8726 H         1 <0>         0.0534
     33 H3         -0.5289    1.8773    0.9072 H         1 <0>         0.0534
     34 H4          0.5123   -0.3556   -0.8948 H         1 <0>         0.0603
     35 H5          0.5293   -0.3651    0.8851 H         1 <0>         0.0603
     36 H6         -1.9435   -0.1821    0.9097 H         1 <0>         0.0606
     37 H7         -1.9605   -0.1726   -0.8702 H         1 <0>         0.0606
     38 H8         -0.9024   -2.4150   -0.8923 H         1 <0>         0.0605
     39 H9         -0.8854   -2.4246    0.8875 H         1 <0>         0.0606
     40 H10        -3.3581   -2.2415    0.9121 H         1 <0>         0.0605
     41 H11        -3.3751   -2.2320   -0.8677 H         1 <0>         0.0605
     42 H12        -2.3170   -4.4744   -0.8899 H         1 <0>         0.0605
     43 H13        -2.3000   -4.4840    0.8900 H         1 <0>         0.0605
     44 H14        -4.7728   -4.3010    0.9146 H         1 <0>         0.0605
     45 H15        -4.7898   -4.2914   -0.8653 H         1 <0>         0.0604
     46 H16        -3.7316   -6.5338   -0.8874 H         1 <0>         0.0605
     47 H17        -3.7146   -6.5434    0.8924 H         1 <0>         0.0605
     48 H18        -6.1874   -6.3604    0.9170 H         1 <0>         0.0605
     49 H19        -6.2044   -6.3508   -0.8628 H         1 <0>         0.0605
     50 H20        -5.1463   -8.5933   -0.8850 H         1 <0>         0.0607
     51 H21        -5.1293   -8.6028    0.8949 H         1 <0>         0.0607
     52 H22        -7.6020   -8.4198    0.9195 H         1 <0>         0.0607
     53 H23        -7.6190   -8.4102   -0.8604 H         1 <0>         0.0607
     54 H24        -6.5609  -10.6527   -0.8825 H         1 <0>         0.0612
     55 H25        -6.5439  -10.6622    0.8973 H         1 <0>         0.0612
     56 H26        -9.0167  -10.4792    0.9219 H         1 <0>         0.0616
     57 H27        -9.0337  -10.4697   -0.8579 H         1 <0>         0.0615
     58 H28        -7.9755  -12.7121   -0.8801 H         1 <0>         0.0633
     59 H29        -7.9586  -12.7217    0.8998 H         1 <0>         0.0634
     60 H30       -10.4313  -12.5386    0.9244 H         1 <0>         0.0656
     61 H31       -10.4483  -12.5291   -0.8555 H         1 <0>         0.0656
     62 H32        -9.3902  -14.7715   -0.8776 H         1 <0>         0.0738
     63 H33        -9.3732  -14.7811    0.9022 H         1 <0>         0.0737
     64 H34       -11.8459  -14.5981    0.9268 H         1 <0>         0.0866
     65 H35       -11.8629  -14.5885   -0.8531 H         1 <0>         0.0867
     66 H36       -10.8048  -16.8309   -0.8752 H         1 <0>         0.1338
     67 H37       -10.7878  -16.8405    0.9047 H         1 <0>         0.1317
     68 H38       -13.1654  -16.6625    0.8622 H         1 <0>         0.4272
     69 H39       -12.0746  -18.8145    0.8616 H         1 <0>         0.1625
     70 H40       -11.1850  -18.4307   -1.6262 H         1 <0>         0.1491
     71 H41       -14.5877  -20.4039   -2.2031 H         1 <0>         0.0918
     72 H42       -15.0751  -20.9121    0.1048 H         1 <0>         0.0907
     73 H43       -14.4684  -18.7955    1.1701 H         1 <0>         0.1031
     74 H44       -15.8710  -18.6204   -0.7579 H         1 <0>         0.4108
     75 H45       -13.0358  -22.0774    0.5821 H         1 <0>         0.4062
     76 H46       -13.2797  -22.3276   -2.7215 H         1 <0>         0.3930
     77 H47       -11.4578  -21.3329   -3.1513 H         1 <0>         0.0745
     78 H48       -12.4775  -20.2018   -4.0729 H         1 <0>         0.0718
     79 H49       -10.1643  -19.6197   -4.1990 H         1 <0>         0.3977
     80 H50       -13.1812  -16.6536   -0.7854 H         1 <0>         0.4334
@<TRIPOS>BOND
     1    1    2 1
     2    1   31 1
     3    1   32 1
     4    1   33 1
     5    2    3 1
     6    2   34 1
     7    2   35 1
     8    3    4 1
     9    3   36 1
    10    3   37 1
    11    4    5 1
    12    4   38 1
    13    4   39 1
    14    5    6 1
    15    5   40 1
    16    5   41 1
    17    6    7 1
    18    6   42 1
    19    6   43 1
    20    7    8 1
    21    7   44 1
    22    7   45 1
    23    8    9 1
    24    8   46 1
    25    8   47 1
    26    9   10 1
    27    9   48 1
    28    9   49 1
    29   10   11 1
    30   10   50 1
    31   10   51 1
    32   11   12 1
    33   11   52 1
    34   11   53 1
    35   12   13 1
    36   12   54 1
    37   12   55 1
    38   13   14 1
    39   13   56 1
    40   13   57 1
    41   14   15 1
    42   14   58 1
    43   14   59 1
    44   15   16 1
    45   15   60 1
    46   15   61 1
    47   16   17 1
    48   16   62 1
    49   16   63 1
    50   17   18 1
    51   17   64 1
    52   17   65 1
    53   18   19 1
    54   18   66 1
    55   18   67 1
    56   19   20 1
    57   19   68 1
    58   19   80 1
    59   20   25 1
    60   20   21 1
    61   20   69 1
    62   21   22 2
    63   21   70 1
    64   22   23 1
    65   22   29 1
    66   23   24 1
    67   23   28 1
    68   23   71 1
    69   24   25 1
    70   24   27 1
    71   24   72 1
    72   25   26 1
    73   25   73 1
    74   26   74 1
    75   27   75 1
    76   28   76 1
    77   29   30 1
    78   29   77 1
    79   29   78 1
    80   30   79 1
@<TRIPOS>MOLECULE
CHEMBL426933__1
   80    80     0     0     0
SMALL
USER_CHARGES

@<TRIPOS>ATOM
      1 C1         -0.0187    1.5258    0.0104 C.3       1 <0>        -0.1546
      2 C2          0.0021   -0.0041    0.0020 C.3       1 <0>        -0.1261
      3 C3         -1.4333   -0.5336    0.0129 C.3       1 <0>        -0.1213
      4 C4         -1.4126   -2.0635    0.0045 C.3       1 <0>        -0.1212
      5 C5         -2.8479   -2.5931    0.0153 C.3       1 <0>        -0.1207
      6 C6         -2.8272   -4.1229    0.0069 C.3       1 <0>        -0.1207
      7 C7         -4.2626   -4.6525    0.0178 C.3       1 <0>        -0.1207
      8 C8         -4.2418   -6.1823    0.0094 C.3       1 <0>        -0.1207
      9 C9         -5.6772   -6.7119    0.0202 C.3       1 <0>        -0.1207
     10 C10        -5.6565   -8.2417    0.0118 C.3       1 <0>        -0.1208
     11 C11        -7.0918   -8.7713    0.0227 C.3       1 <0>        -0.1208
     12 C12        -7.0711  -10.3012    0.0143 C.3       1 <0>        -0.1211
     13 C13        -8.5065  -10.8307    0.0251 C.3       1 <0>        -0.1210
     14 C14        -8.4857  -12.3606    0.0167 C.3       1 <0>        -0.1218
     15 C15        -9.9211  -12.8902    0.0276 C.3       1 <0>        -0.1209
     16 C16        -9.9004  -14.4200    0.0191 C.3       1 <0>        -0.1181
     17 C17       -11.3358  -14.9496    0.0300 C.3       1 <0>        -0.1476
     18 C18       -11.3150  -16.4794    0.0216 C.3       1 <0>        -0.0134
     19 N1        -12.6932  -16.9879    0.0320 N.4       1 <0>        -0.5038
     20 C19       -12.6732  -18.4567    0.0239 C.3       1 <0>         0.0840
     21 C20       -12.0650  -18.9389   -1.2604 C.2       1 <0>        -0.1881
     22 C21       -12.5297  -19.9257   -1.9574 C.2       1 <0>        -0.0892
     23 C22       -13.7477  -20.7188   -1.5840 C.3       1 <0>         0.1003
     24 C23       -14.0916  -20.4939   -0.1099 C.3       1 <0>         0.0929
     25 C24       -14.1032  -18.9841    0.1606 C.3       1 <0>         0.0968
     26 O1        -14.5820  -18.7369    1.4841 O.3       1 <0>        -0.5541
     27 O2        -13.1077  -21.1221    0.7142 O.3       1 <0>        -0.5478
     28 O3        -13.4946  -22.1078   -1.8047 O.3       1 <0>        -0.5493
     29 C25       -11.8025  -20.3013   -3.2228 C.3       1 <0>         0.0943
     30 O4        -10.6800  -19.4353   -3.4020 O.3       1 <0>        -0.5733
     31 H1          1.0039    1.9031    0.0027 H         1 <0>         0.0541
     32 H2         -0.5459    1.8868   -0.8726 H         1 <0>         0.0534
     33 H3         -0.5289    1.8773    0.9072 H         1 <0>         0.0535
     34 H4          0.5123   -0.3556   -0.8948 H         1 <0>         0.0603
     35 H5          0.5293   -0.3651    0.8851 H         1 <0>         0.0603
     36 H6         -1.9435   -0.1821    0.9097 H         1 <0>         0.0606
     37 H7         -1.9605   -0.1726   -0.8702 H         1 <0>         0.0606
     38 H8         -0.9024   -2.4150   -0.8923 H         1 <0>         0.0605
     39 H9         -0.8854   -2.4246    0.8875 H         1 <0>         0.0606
     40 H10        -3.3581   -2.2415    0.9121 H         1 <0>         0.0605
     41 H11        -3.3751   -2.2320   -0.8677 H         1 <0>         0.0604
     42 H12        -2.3170   -4.4744   -0.8899 H         1 <0>         0.0605
     43 H13        -2.3000   -4.4840    0.8900 H         1 <0>         0.0605
     44 H14        -4.7728   -4.3010    0.9146 H         1 <0>         0.0605
     45 H15        -4.7898   -4.2914   -0.8653 H         1 <0>         0.0604
     46 H16        -3.7316   -6.5338   -0.8874 H         1 <0>         0.0605
     47 H17        -3.7146   -6.5434    0.8924 H         1 <0>         0.0606
     48 H18        -6.1874   -6.3604    0.9170 H         1 <0>         0.0605
     49 H19        -6.2044   -6.3508   -0.8628 H         1 <0>         0.0605
     50 H20        -5.1463   -8.5933   -0.8850 H         1 <0>         0.0606
     51 H21        -5.1293   -8.6028    0.8949 H         1 <0>         0.0607
     52 H22        -7.6020   -8.4198    0.9195 H         1 <0>         0.0608
     53 H23        -7.6190   -8.4102   -0.8604 H         1 <0>         0.0606
     54 H24        -6.5609  -10.6527   -0.8825 H         1 <0>         0.0611
     55 H25        -6.5439  -10.6622    0.8973 H         1 <0>         0.0613
     56 H26        -9.0167  -10.4792    0.9219 H         1 <0>         0.0617
     57 H27        -9.0337  -10.4697   -0.8579 H         1 <0>         0.0614
     58 H28        -7.9755  -12.7121   -0.8801 H         1 <0>         0.0633
     59 H29        -7.9586  -12.7217    0.8998 H         1 <0>         0.0635
     60 H30       -10.4313  -12.5386    0.9244 H         1 <0>         0.0658
     61 H31       -10.4483  -12.5291   -0.8555 H         1 <0>         0.0654
     62 H32        -9.3902  -14.7715   -0.8776 H         1 <0>         0.0739
     63 H33        -9.3732  -14.7811    0.9022 H         1 <0>         0.0741
     64 H34       -11.8459  -14.5981    0.9268 H         1 <0>         0.0873
     65 H35       -11.8629  -14.5885   -0.8531 H         1 <0>         0.0864
     66 H36       -10.8048  -16.8309   -0.8752 H         1 <0>         0.1341
     67 H37       -10.7878  -16.8405    0.9047 H         1 <0>         0.1328
     68 H38       -13.1654  -16.6625    0.8622 H         1 <0>         0.4348
     69 H39       -12.0746  -18.8145    0.8616 H         1 <0>         0.1619
     70 H40       -11.1850  -18.4307   -1.6262 H         1 <0>         0.1555
     71 H41       -14.5877  -20.4039   -2.2031 H         1 <0>         0.0904
     72 H42       -15.0751  -20.9121    0.1048 H         1 <0>         0.0916
     73 H43       -14.7479  -18.4872   -0.5643 H         1 <0>         0.0959
     74 H44       -15.4846  -19.0466    1.6401 H         1 <0>         0.4078
     75 H45       -13.0358  -22.0774    0.5821 H         1 <0>         0.4014
     76 H46       -13.2797  -22.3276   -2.7215 H         1 <0>         0.3938
     77 H47       -11.4578  -21.3329   -3.1513 H         1 <0>         0.0767
     78 H48       -12.4775  -20.2018   -4.0729 H         1 <0>         0.0734
     79 H49       -10.1643  -19.6197   -4.1990 H         1 <0>         0.3990
     80 H50       -13.1812  -16.6536   -0.7854 H         1 <0>         0.4235
@<TRIPOS>BOND
     1    1    2 1
     2    1   31 1
     3    1   32 1
     4    1   33 1
     5    2    3 1
     6    2   34 1
     7    2   35 1
     8    3    4 1
     9    3   36 1
    10    3   37 1
    11    4    5 1
    12    4   38 1
    13    4   39 1
    14    5    6 1
    15    5   40 1
    16    5   41 1
    17    6    7 1
    18    6   42 1
    19    6   43 1
    20    7    8 1
    21    7   44 1
    22    7   45 1
    23    8    9 1
    24    8   46 1
    25    8   47 1
    26    9   10 1
    27    9   48 1
    28    9   49 1
    29   10   11 1
    30   10   50 1
    31   10   51 1
    32   11   12 1
    33   11   52 1
    34   11   53 1
    35   12   13 1
    36   12   54 1
    37   12   55 1
    38   13   14 1
    39   13   56 1
    40   13   57 1
    41   14   15 1
    42   14   58 1
    43   14   59 1
    44   15   16 1
    45   15   60 1
    46   15   61 1
    47   16   17 1
    48   16   62 1
    49   16   63 1
    50   17   18 1
    51   17   64 1
    52   17   65 1
    53   18   19 1
    54   18   66 1
    55   18   67 1
    56   19   20 1
    57   19   68 1
    58   19   80 1
    59   20   25 1
    60   20   21 1
    61   20   69 1
    62   21   22 2
    63   21   70 1
    64   22   23 1
    65   22   29 1
    66   23   24 1
    67   23   28 1
    68   23   71 1
    69   24   25 1
    70   24   27 1
    71   24   72 1
    72   25   26 1
    73   25   73 1
    74   26   74 1
    75   27   75 1
    76   28   76 1
    77   29   30 1
    78   29   77 1
    79   29   78 1
    80   30   79 1
@<TRIPOS>MOLECULE
CHEMBL426933__2
   80    80     0     0     0
SMALL
USER_CHARGES

@<TRIPOS>ATOM
      1 C1         -0.0187    1.5258    0.0104 C.3       1 <0>        -0.1547
      2 C2          0.0021   -0.0041    0.0020 C.3       1 <0>        -0.1261
      3 C3         -1.4333   -0.5336    0.0129 C.3       1 <0>        -0.1213
      4 C4         -1.4126   -2.0635    0.0045 C.3       1 <0>        -0.1212
      5 C5         -2.8479   -2.5931    0.0153 C.3       1 <0>        -0.1207
      6 C6         -2.8272   -4.1229    0.0069 C.3       1 <0>        -0.1207
      7 C7         -4.2626   -4.6525    0.0178 C.3       1 <0>        -0.1207
      8 C8         -4.2418   -6.1823    0.0094 C.3       1 <0>        -0.1207
      9 C9         -5.6772   -6.7119    0.0202 C.3       1 <0>        -0.1207
     10 C10        -5.6565   -8.2417    0.0118 C.3       1 <0>        -0.1208
     11 C11        -7.0918   -8.7713    0.0227 C.3       1 <0>        -0.1209
     12 C12        -7.0711  -10.3012    0.0143 C.3       1 <0>        -0.1211
     13 C13        -8.5065  -10.8307    0.0251 C.3       1 <0>        -0.1212
     14 C14        -8.4857  -12.3606    0.0167 C.3       1 <0>        -0.1216
     15 C15        -9.9211  -12.8902    0.0276 C.3       1 <0>        -0.1212
     16 C16        -9.9004  -14.4200    0.0191 C.3       1 <0>        -0.1177
     17 C17       -11.3358  -14.9496    0.0300 C.3       1 <0>        -0.1477
     18 C18       -11.3150  -16.4794    0.0216 C.3       1 <0>        -0.0149
     19 N1        -12.6932  -16.9879    0.0320 N.4       1 <0>        -0.4978
     20 C19       -12.6732  -18.4567    0.0239 C.3       1 <0>         0.0830
     21 C20       -12.0650  -18.9389   -1.2604 C.2       1 <0>        -0.2012
     22 C21       -12.5297  -19.9257   -1.9574 C.2       1 <0>        -0.0769
     23 C22       -13.7472  -20.7194   -1.5835 C.3       1 <0>         0.1045
     24 C23       -14.0910  -20.4942   -0.1095 C.3       1 <0>         0.0919
     25 C24       -14.1032  -18.9841    0.1606 C.3       1 <0>         0.0955
     26 O1        -14.9484  -18.3327   -0.7898 O.3       1 <0>        -0.5666
     27 O2        -15.3798  -21.0431    0.1725 O.3       1 <0>        -0.5549
     28 O3        -13.4932  -22.1083   -1.8037 O.3       1 <0>        -0.5541
     29 C25       -11.8025  -20.3013   -3.2228 C.3       1 <0>         0.0935
     30 O4        -10.6800  -19.4353   -3.4020 O.3       1 <0>        -0.5732
     31 H1          1.0039    1.9031    0.0027 H         1 <0>         0.0541
     32 H2         -0.5459    1.8868   -0.8726 H         1 <0>         0.0534
     33 H3         -0.5289    1.8773    0.9072 H         1 <0>         0.0535
     34 H4          0.5123   -0.3556   -0.8948 H         1 <0>         0.0603
     35 H5          0.5293   -0.3651    0.8851 H         1 <0>         0.0603
     36 H6         -1.9435   -0.1821    0.9097 H         1 <0>         0.0606
     37 H7         -1.9605   -0.1726   -0.8702 H         1 <0>         0.0606
     38 H8         -0.9024   -2.4150   -0.8923 H         1 <0>         0.0605
     39 H9         -0.8854   -2.4246    0.8875 H         1 <0>         0.0606
     40 H10        -3.3581   -2.2415    0.9121 H         1 <0>         0.0605
     41 H11        -3.3751   -2.2320   -0.8677 H         1 <0>         0.0605
     42 H12        -2.3170   -4.4744   -0.8899 H         1 <0>         0.0605
     43 H13        -2.3000   -4.4840    0.8900 H         1 <0>         0.0605
     44 H14        -4.7728   -4.3010    0.9146 H         1 <0>         0.0605
     45 H15        -4.7898   -4.2914   -0.8653 H         1 <0>         0.0605
     46 H16        -3.7316   -6.5338   -0.8874 H         1 <0>         0.0605
     47 H17        -3.7146   -6.5434    0.8924 H         1 <0>         0.0605
     48 H18        -6.1874   -6.3604    0.9170 H         1 <0>         0.0605
     49 H19        -6.2044   -6.3508   -0.8628 H         1 <0>         0.0605
     50 H20        -5.1463   -8.5933   -0.8850 H         1 <0>         0.0607
     51 H21        -5.1293   -8.6028    0.8949 H         1 <0>         0.0607
     52 H22        -7.6020   -8.4198    0.9195 H         1 <0>         0.0608
     53 H23        -7.6190   -8.4102   -0.8604 H         1 <0>         0.0608
     54 H24        -6.5609  -10.6527   -0.8825 H         1 <0>         0.0612
     55 H25        -6.5439  -10.6622    0.8973 H         1 <0>         0.0612
     56 H26        -9.0167  -10.4792    0.9219 H         1 <0>         0.0616
     57 H27        -9.0337  -10.4697   -0.8579 H         1 <0>         0.0616
     58 H28        -7.9755  -12.7121   -0.8801 H         1 <0>         0.0633
     59 H29        -7.9586  -12.7217    0.8998 H         1 <0>         0.0633
     60 H30       -10.4313  -12.5386    0.9244 H         1 <0>         0.0658
     61 H31       -10.4483  -12.5291   -0.8555 H         1 <0>         0.0658
     62 H32        -9.3902  -14.7715   -0.8776 H         1 <0>         0.0740
     63 H33        -9.3732  -14.7811    0.9022 H         1 <0>         0.0737
     64 H34       -11.8459  -14.5981    0.9268 H         1 <0>         0.0872
     65 H35       -11.8629  -14.5885   -0.8531 H         1 <0>         0.0874
     66 H36       -10.8048  -16.8309   -0.8752 H         1 <0>         0.1348
     67 H37       -10.7878  -16.8405    0.9047 H         1 <0>         0.1322
     68 H38       -13.1654  -16.6625    0.8622 H         1 <0>         0.4288
     69 H39       -12.0746  -18.8145    0.8616 H         1 <0>         0.1584
     70 H40       -11.1850  -18.4307   -1.6262 H         1 <0>         0.1531
     71 H41       -14.5875  -20.4053   -2.2026 H         1 <0>         0.0953
     72 H42       -13.3400  -20.9727    0.5192 H         1 <0>         0.0870
     73 H43       -14.4684  -18.7955    1.1701 H         1 <0>         0.1034
     74 H44       -15.8710  -18.6204   -0.7579 H         1 <0>         0.4155
     75 H45       -15.4472  -21.9935    0.0074 H         1 <0>         0.4059
     76 H46       -13.2784  -22.3283   -2.7205 H         1 <0>         0.3918
     77 H47       -11.4578  -21.3329   -3.1513 H         1 <0>         0.0767
     78 H48       -12.4775  -20.2018   -4.0729 H         1 <0>         0.0746
     79 H49       -10.1643  -19.6197   -4.1990 H         1 <0>         0.3989
     80 H50       -13.1812  -16.6536   -0.7854 H         1 <0>         0.4360
@<TRIPOS>BOND
     1    1    2 1
     2    1   31 1
     3    1   32 1
     4    1   33 1
     5    2    3 1
     6    2   34 1
     7    2   35 1
     8    3    4 1
     9    3   36 1
    10    3   37 1
    11    4    5 1
    12    4   38 1
    13    4   39 1
    14    5    6 1
    15    5   40 1
    16    5   41 1
    17    6    7 1
    18    6   42 1
    19    6   43 1
    20    7    8 1
    21    7   44 1
    22    7   45 1
    23    8    9 1
    24    8   46 1
    25    8   47 1
    26    9   10 1
    27    9   48 1
    28    9   49 1
    29   10   11 1
    30   10   50 1
    31   10   51 1
    32   11   12 1
    33   11   52 1
    34   11   53 1
    35   12   13 1
    36   12   54 1
    37   12   55 1
    38   13   14 1
    39   13   56 1
    40   13   57 1
    41   14   15 1
    42   14   58 1
    43   14   59 1
    44   15   16 1
    45   15   60 1
    46   15   61 1
    47   16   17 1
    48   16   62 1
    49   16   63 1
    50   17   18 1
    51   17   64 1
    52   17   65 1
    53   18   19 1
    54   18   66 1
    55   18   67 1
    56   19   20 1
    57   19   68 1
    58   19   80 1
    59   20   25 1
    60   20   21 1
    61   20   69 1
    62   21   22 2
    63   21   70 1
    64   22   23 1
    65   22   29 1
    66   23   24 1
    67   23   28 1
    68   23   71 1
    69   24   25 1
    70   24   27 1
    71   24   72 1
    72   25   26 1
    73   25   73 1
    74   26   74 1
    75   27   75 1
    76   28   76 1
    77   29   30 1
    78   29   77 1
    79   29   78 1
    80   30   79 1
@<TRIPOS>MOLECULE
CHEMBL426933__3
   80    80     0     0     0
SMALL
USER_CHARGES

@<TRIPOS>ATOM
      1 C1         -0.0187    1.5258    0.0104 C.3       1 <0>        -0.1546
      2 C2          0.0021   -0.0041    0.0020 C.3       1 <0>        -0.1261
      3 C3         -1.4333   -0.5336    0.0129 C.3       1 <0>        -0.1213
      4 C4         -1.4126   -2.0635    0.0045 C.3       1 <0>        -0.1212
      5 C5         -2.8479   -2.5931    0.0153 C.3       1 <0>        -0.1207
      6 C6         -2.8272   -4.1229    0.0069 C.3       1 <0>        -0.1207
      7 C7         -4.2626   -4.6525    0.0178 C.3       1 <0>        -0.1207
      8 C8         -4.2418   -6.1823    0.0094 C.3       1 <0>        -0.1207
      9 C9         -5.6772   -6.7119    0.0202 C.3       1 <0>        -0.1207
     10 C10        -5.6565   -8.2417    0.0118 C.3       1 <0>        -0.1208
     11 C11        -7.0918   -8.7713    0.0227 C.3       1 <0>        -0.1209
     12 C12        -7.0711  -10.3012    0.0143 C.3       1 <0>        -0.1211
     13 C13        -8.5065  -10.8307    0.0251 C.3       1 <0>        -0.1211
     14 C14        -8.4857  -12.3606    0.0167 C.3       1 <0>        -0.1217
     15 C15        -9.9211  -12.8902    0.0276 C.3       1 <0>        -0.1212
     16 C16        -9.9004  -14.4200    0.0191 C.3       1 <0>        -0.1178
     17 C17       -11.3358  -14.9496    0.0300 C.3       1 <0>        -0.1480
     18 C18       -11.3150  -16.4794    0.0216 C.3       1 <0>        -0.0139
     19 N1        -12.6932  -16.9879    0.0320 N.4       1 <0>        -0.5009
     20 C19       -12.6732  -18.4567    0.0239 C.3       1 <0>         0.0808
     21 C20       -12.0650  -18.9389   -1.2604 C.2       1 <0>        -0.2010
     22 C21       -12.5297  -19.9257   -1.9574 C.2       1 <0>        -0.0848
     23 C22       -13.7477  -20.7188   -1.5840 C.3       1 <0>         0.0991
     24 C23       -14.0916  -20.4939   -0.1099 C.3       1 <0>         0.0943
     25 C24       -14.1032  -18.9841    0.1606 C.3       1 <0>         0.0981
     26 O1        -14.5820  -18.7369    1.4841 O.3       1 <0>        -0.5577
     27 O2        -15.3809  -21.0421    0.1716 O.3       1 <0>        -0.5545
     28 O3        -13.4946  -22.1078   -1.8047 O.3       1 <0>        -0.5493
     29 C25       -11.8025  -20.3013   -3.2228 C.3       1 <0>         0.0933
     30 O4        -10.6800  -19.4353   -3.4020 O.3       1 <0>        -0.5734
     31 H1          1.0039    1.9031    0.0027 H         1 <0>         0.0541
     32 H2         -0.5459    1.8868   -0.8726 H         1 <0>         0.0534
     33 H3         -0.5289    1.8773    0.9072 H         1 <0>         0.0535
     34 H4          0.5123   -0.3556   -0.8948 H         1 <0>         0.0603
     35 H5          0.5293   -0.3651    0.8851 H         1 <0>         0.0603
     36 H6         -1.9435   -0.1821    0.9097 H         1 <0>         0.0606
     37 H7         -1.9605   -0.1726   -0.8702 H         1 <0>         0.0606
     38 H8         -0.9024   -2.4150   -0.8923 H         1 <0>         0.0605
     39 H9         -0.8854   -2.4246    0.8875 H         1 <0>         0.0606
     40 H10        -3.3581   -2.2415    0.9121 H         1 <0>         0.0605
     41 H11        -3.3751   -2.2320   -0.8677 H         1 <0>         0.0605
     42 H12        -2.3170   -4.4744   -0.8899 H         1 <0>         0.0605
     43 H13        -2.3000   -4.4840    0.8900 H         1 <0>         0.0605
     44 H14        -4.7728   -4.3010    0.9146 H         1 <0>         0.0605
     45 H15        -4.7898   -4.2914   -0.8653 H         1 <0>         0.0604
     46 H16        -3.7316   -6.5338   -0.8874 H         1 <0>         0.0605
     47 H17        -3.7146   -6.5434    0.8924 H         1 <0>         0.0606
     48 H18        -6.1874   -6.3604    0.9170 H         1 <0>         0.0606
     49 H19        -6.2044   -6.3508   -0.8628 H         1 <0>         0.0605
     50 H20        -5.1463   -8.5933   -0.8850 H         1 <0>         0.0606
     51 H21        -5.1293   -8.6028    0.8949 H         1 <0>         0.0607
     52 H22        -7.6020   -8.4198    0.9195 H         1 <0>         0.0608
     53 H23        -7.6190   -8.4102   -0.8604 H         1 <0>         0.0607
     54 H24        -6.5609  -10.6527   -0.8825 H         1 <0>         0.0611
     55 H25        -6.5439  -10.6622    0.8973 H         1 <0>         0.0613
     56 H26        -9.0167  -10.4792    0.9219 H         1 <0>         0.0617
     57 H27        -9.0337  -10.4697   -0.8579 H         1 <0>         0.0615
     58 H28        -7.9755  -12.7121   -0.8801 H         1 <0>         0.0633
     59 H29        -7.9586  -12.7217    0.8998 H         1 <0>         0.0635
     60 H30       -10.4313  -12.5386    0.9244 H         1 <0>         0.0660
     61 H31       -10.4483  -12.5291   -0.8555 H         1 <0>         0.0656
     62 H32        -9.3902  -14.7715   -0.8776 H         1 <0>         0.0740
     63 H33        -9.3732  -14.7811    0.9022 H         1 <0>         0.0741
     64 H34       -11.8459  -14.5981    0.9268 H         1 <0>         0.0879
     65 H35       -11.8629  -14.5885   -0.8531 H         1 <0>         0.0871
     66 H36       -10.8048  -16.8309   -0.8752 H         1 <0>         0.1350
     67 H37       -10.7878  -16.8405    0.9047 H         1 <0>         0.1334
     68 H38       -13.1654  -16.6625    0.8622 H         1 <0>         0.4364
     69 H39       -12.0746  -18.8145    0.8616 H         1 <0>         0.1571
     70 H40       -11.1850  -18.4307   -1.6262 H         1 <0>         0.1594
     71 H41       -14.5877  -20.4039   -2.2031 H         1 <0>         0.0937
     72 H42       -13.3411  -20.9731    0.5187 H         1 <0>         0.0878
     73 H43       -14.7479  -18.4872   -0.5643 H         1 <0>         0.0900
     74 H44       -15.4846  -19.0466    1.6401 H         1 <0>         0.4161
     75 H45       -15.4489  -21.9924    0.0061 H         1 <0>         0.4071
     76 H46       -13.2797  -22.3276   -2.7215 H         1 <0>         0.3928
     77 H47       -11.4578  -21.3329   -3.1513 H         1 <0>         0.0789
     78 H48       -12.4775  -20.2018   -4.0729 H         1 <0>         0.0762
     79 H49       -10.1643  -19.6197   -4.1990 H         1 <0>         0.4002
     80 H50       -13.1812  -16.6536   -0.7854 H         1 <0>         0.4262
@<TRIPOS>BOND
     1    1    2 1
     2    1   31 1
     3    1   32 1
     4    1   33 1
     5    2    3 1
     6    2   34 1
     7    2   35 1
     8    3    4 1
     9    3   36 1
    10    3   37 1
    11    4    5 1
    12    4   38 1
    13    4   39 1
    14    5    6 1
    15    5   40 1
    16    5   41 1
    17    6    7 1
    18    6   42 1
    19    6   43 1
    20    7    8 1
    21    7   44 1
    22    7   45 1
    23    8    9 1
    24    8   46 1
    25    8   47 1
    26    9   10 1
    27    9   48 1
    28    9   49 1
    29   10   11 1
    30   10   50 1
    31   10   51 1
    32   11   12 1
    33   11   52 1
    34   11   53 1
    35   12   13 1
    36   12   54 1
    37   12   55 1
    38   13   14 1
    39   13   56 1
    40   13   57 1
    41   14   15 1
    42   14   58 1
    43   14   59 1
    44   15   16 1
    45   15   60 1
    46   15   61 1
    47   16   17 1
    48   16   62 1
    49   16   63 1
    50   17   18 1
    51   17   64 1
    52   17   65 1
    53   18   19 1
    54   18   66 1
    55   18   67 1
    56   19   20 1
    57   19   68 1
    58   19   80 1
    59   20   25 1
    60   20   21 1
    61   20   69 1
    62   21   22 2
    63   21   70 1
    64   22   23 1
    65   22   29 1
    66   23   24 1
    67   23   28 1
    68   23   71 1
    69   24   25 1
    70   24   27 1
    71   24   72 1
    72   25   26 1
    73   25   73 1
    74   26   74 1
    75   27   75 1
    76   28   76 1
    77   29   30 1
    78   29   77 1
    79   29   78 1
    80   30   79 1
@<TRIPOS>MOLECULE
CHEMBL426933__4
   80    80     0     0     0
SMALL
USER_CHARGES

@<TRIPOS>ATOM
      1 C1         -0.0187    1.5258    0.0104 C.3       1 <0>        -0.1546
      2 C2          0.0021   -0.0041    0.0020 C.3       1 <0>        -0.1261
      3 C3         -1.4333   -0.5336    0.0129 C.3       1 <0>        -0.1213
      4 C4         -1.4126   -2.0635    0.0045 C.3       1 <0>        -0.1212
      5 C5         -2.8479   -2.5931    0.0153 C.3       1 <0>        -0.1207
      6 C6         -2.8272   -4.1229    0.0069 C.3       1 <0>        -0.1207
      7 C7         -4.2626   -4.6525    0.0178 C.3       1 <0>        -0.1207
      8 C8         -4.2418   -6.1823    0.0094 C.3       1 <0>        -0.1207
      9 C9         -5.6772   -6.7119    0.0202 C.3       1 <0>        -0.1207
     10 C10        -5.6565   -8.2417    0.0118 C.3       1 <0>        -0.1208
     11 C11        -7.0918   -8.7713    0.0227 C.3       1 <0>        -0.1209
     12 C12        -7.0711  -10.3012    0.0143 C.3       1 <0>        -0.1211
     13 C13        -8.5065  -10.8307    0.0251 C.3       1 <0>        -0.1211
     14 C14        -8.4857  -12.3606    0.0167 C.3       1 <0>        -0.1216
     15 C15        -9.9211  -12.8902    0.0276 C.3       1 <0>        -0.1211
     16 C16        -9.9004  -14.4200    0.0191 C.3       1 <0>        -0.1177
     17 C17       -11.3358  -14.9496    0.0300 C.3       1 <0>        -0.1474
     18 C18       -11.3150  -16.4794    0.0216 C.3       1 <0>        -0.0145
     19 N1        -12.6932  -16.9879    0.0320 N.4       1 <0>        -0.4999
     20 C19       -12.6732  -18.4567    0.0239 C.3       1 <0>         0.0855
     21 C20       -12.0650  -18.9389   -1.2604 C.2       1 <0>        -0.1756
     22 C21       -12.5297  -19.9257   -1.9574 C.2       1 <0>        -0.0893
     23 C22       -13.7472  -20.7194   -1.5835 C.3       1 <0>         0.1100
     24 C23       -14.0910  -20.4942   -0.1095 C.3       1 <0>         0.0857
     25 C24       -14.1032  -18.9841    0.1606 C.3       1 <0>         0.0972
     26 O1        -14.9484  -18.3327   -0.7898 O.3       1 <0>        -0.5478
     27 O2        -13.1065  -21.1215    0.7147 O.3       1 <0>        -0.5522
     28 O3        -14.8488  -20.3076   -2.3951 O.3       1 <0>        -0.5396
     29 C25       -11.8025  -20.3013   -3.2228 C.3       1 <0>         0.0976
     30 O4        -10.6800  -19.4353   -3.4020 O.3       1 <0>        -0.5743
     31 H1          1.0039    1.9031    0.0027 H         1 <0>         0.0541
     32 H2         -0.5459    1.8868   -0.8726 H         1 <0>         0.0534
     33 H3         -0.5289    1.8773    0.9072 H         1 <0>         0.0535
     34 H4          0.5123   -0.3556   -0.8948 H         1 <0>         0.0603
     35 H5          0.5293   -0.3651    0.8851 H         1 <0>         0.0603
     36 H6         -1.9435   -0.1821    0.9097 H         1 <0>         0.0606
     37 H7         -1.9605   -0.1726   -0.8702 H         1 <0>         0.0606
     38 H8         -0.9024   -2.4150   -0.8923 H         1 <0>         0.0605
     39 H9         -0.8854   -2.4246    0.8875 H         1 <0>         0.0606
     40 H10        -3.3581   -2.2415    0.9121 H         1 <0>         0.0605
     41 H11        -3.3751   -2.2320   -0.8677 H         1 <0>         0.0605
     42 H12        -2.3170   -4.4744   -0.8899 H         1 <0>         0.0605
     43 H13        -2.3000   -4.4840    0.8900 H         1 <0>         0.0605
     44 H14        -4.7728   -4.3010    0.9146 H         1 <0>         0.0605
     45 H15        -4.7898   -4.2914   -0.8653 H         1 <0>         0.0605
     46 H16        -3.7316   -6.5338   -0.8874 H         1 <0>         0.0605
     47 H17        -3.7146   -6.5434    0.8924 H         1 <0>         0.0605
     48 H18        -6.1874   -6.3604    0.9170 H         1 <0>         0.0605
     49 H19        -6.2044   -6.3508   -0.8628 H         1 <0>         0.0605
     50 H20        -5.1463   -8.5933   -0.8850 H         1 <0>         0.0606
     51 H21        -5.1293   -8.6028    0.8949 H         1 <0>         0.0607
     52 H22        -7.6020   -8.4198    0.9195 H         1 <0>         0.0608
     53 H23        -7.6190   -8.4102   -0.8604 H         1 <0>         0.0607
     54 H24        -6.5609  -10.6527   -0.8825 H         1 <0>         0.0611
     55 H25        -6.5439  -10.6622    0.8973 H         1 <0>         0.0612
     56 H26        -9.0167  -10.4792    0.9219 H         1 <0>         0.0616
     57 H27        -9.0337  -10.4697   -0.8579 H         1 <0>         0.0616
     58 H28        -7.9755  -12.7121   -0.8801 H         1 <0>         0.0633
     59 H29        -7.9586  -12.7217    0.8998 H         1 <0>         0.0633
     60 H30       -10.4313  -12.5386    0.9244 H         1 <0>         0.0656
     61 H31       -10.4483  -12.5291   -0.8555 H         1 <0>         0.0656
     62 H32        -9.3902  -14.7715   -0.8776 H         1 <0>         0.0737
     63 H33        -9.3732  -14.7811    0.9022 H         1 <0>         0.0736
     64 H34       -11.8459  -14.5981    0.9268 H         1 <0>         0.0867
     65 H35       -11.8629  -14.5885   -0.8531 H         1 <0>         0.0868
     66 H36       -10.8048  -16.8309   -0.8752 H         1 <0>         0.1332
     67 H37       -10.7878  -16.8405    0.9047 H         1 <0>         0.1312
     68 H38       -13.1654  -16.6625    0.8622 H         1 <0>         0.4272
     69 H39       -12.0746  -18.8145    0.8616 H         1 <0>         0.1600
     70 H40       -11.1850  -18.4307   -1.6262 H         1 <0>         0.1479
     71 H41       -13.5534  -21.7788   -1.7515 H         1 <0>         0.0786
     72 H42       -15.0741  -20.9129    0.1056 H         1 <0>         0.0940
     73 H43       -14.4684  -18.7955    1.1701 H         1 <0>         0.0946
     74 H44       -15.8710  -18.6204   -0.7579 H         1 <0>         0.4100
     75 H45       -13.0340  -22.0768    0.5830 H         1 <0>         0.3998
     76 H46       -14.7065  -20.4313   -3.3435 H         1 <0>         0.3898
     77 H47       -11.4578  -21.3329   -3.1513 H         1 <0>         0.0716
     78 H48       -12.4775  -20.2018   -4.0729 H         1 <0>         0.0701
     79 H49       -10.1643  -19.6197   -4.1990 H         1 <0>         0.3974
     80 H50       -13.1812  -16.6536   -0.7854 H         1 <0>         0.4344
@<TRIPOS>BOND
     1    1    2 1
     2    1   31 1
     3    1   32 1
     4    1   33 1
     5    2    3 1
     6    2   34 1
     7    2   35 1
     8    3    4 1
     9    3   36 1
    10    3   37 1
    11    4    5 1
    12    4   38 1
    13    4   39 1
    14    5    6 1
    15    5   40 1
    16    5   41 1
    17    6    7 1
    18    6   42 1
    19    6   43 1
    20    7    8 1
    21    7   44 1
    22    7   45 1
    23    8    9 1
    24    8   46 1
    25    8   47 1
    26    9   10 1
    27    9   48 1
    28    9   49 1
    29   10   11 1
    30   10   50 1
    31   10   51 1
    32   11   12 1
    33   11   52 1
    34   11   53 1
    35   12   13 1
    36   12   54 1
    37   12   55 1
    38   13   14 1
    39   13   56 1
    40   13   57 1
    41   14   15 1
    42   14   58 1
    43   14   59 1
    44   15   16 1
    45   15   60 1
    46   15   61 1
    47   16   17 1
    48   16   62 1
    49   16   63 1
    50   17   18 1
    51   17   64 1
    52   17   65 1
    53   18   19 1
    54   18   66 1
    55   18   67 1
    56   19   20 1
    57   19   68 1
    58   19   80 1
    59   20   25 1
    60   20   21 1
    61   20   69 1
    62   21   22 2
    63   21   70 1
    64   22   23 1
    65   22   29 1
    66   23   24 1
    67   23   28 1
    68   23   71 1
    69   24   25 1
    70   24   27 1
    71   24   72 1
    72   25   26 1
    73   25   73 1
    74   26   74 1
    75   27   75 1
    76   28   76 1
    77   29   30 1
    78   29   77 1
    79   29   78 1
    80   30   79 1
@<TRIPOS>MOLECULE
CHEMBL426933__5
   80    80     0     0     0
SMALL
USER_CHARGES

@<TRIPOS>ATOM
      1 C1         -0.0187    1.5258    0.0104 C.3       1 <0>        -0.1546
      2 C2          0.0021   -0.0041    0.0020 C.3       1 <0>        -0.1261
      3 C3         -1.4333   -0.5336    0.0129 C.3       1 <0>        -0.1213
      4 C4         -1.4126   -2.0635    0.0045 C.3       1 <0>        -0.1212
      5 C5         -2.8479   -2.5931    0.0153 C.3       1 <0>        -0.1207
      6 C6         -2.8272   -4.1229    0.0069 C.3       1 <0>        -0.1207
      7 C7         -4.2626   -4.6525    0.0178 C.3       1 <0>        -0.1207
      8 C8         -4.2418   -6.1823    0.0094 C.3       1 <0>        -0.1207
      9 C9         -5.6772   -6.7119    0.0202 C.3       1 <0>        -0.1207
     10 C10        -5.6565   -8.2417    0.0118 C.3       1 <0>        -0.1208
     11 C11        -7.0918   -8.7713    0.0227 C.3       1 <0>        -0.1209
     12 C12        -7.0711  -10.3012    0.0143 C.3       1 <0>        -0.1211
     13 C13        -8.5065  -10.8307    0.0251 C.3       1 <0>        -0.1211
     14 C14        -8.4857  -12.3606    0.0167 C.3       1 <0>        -0.1216
     15 C15        -9.9211  -12.8902    0.0276 C.3       1 <0>        -0.1211
     16 C16        -9.9004  -14.4200    0.0191 C.3       1 <0>        -0.1178
     17 C17       -11.3358  -14.9496    0.0300 C.3       1 <0>        -0.1479
     18 C18       -11.3150  -16.4794    0.0216 C.3       1 <0>        -0.0136
     19 N1        -12.6932  -16.9879    0.0320 N.4       1 <0>        -0.5032
     20 C19       -12.6732  -18.4567    0.0239 C.3       1 <0>         0.0822
     21 C20       -12.0650  -18.9389   -1.2604 C.2       1 <0>        -0.1761
     22 C21       -12.5297  -19.9257   -1.9574 C.2       1 <0>        -0.0960
     23 C22       -13.7477  -20.7188   -1.5840 C.3       1 <0>         0.1012
     24 C23       -14.0916  -20.4939   -0.1099 C.3       1 <0>         0.0899
     25 C24       -14.1032  -18.9841    0.1606 C.3       1 <0>         0.0993
     26 O1        -14.5820  -18.7369    1.4841 O.3       1 <0>        -0.5594
     27 O2        -13.1077  -21.1221    0.7142 O.3       1 <0>        -0.5455
     28 O3        -14.8490  -20.3060   -2.3957 O.3       1 <0>        -0.5489
     29 C25       -11.8025  -20.3013   -3.2228 C.3       1 <0>         0.0975
     30 O4        -10.6800  -19.4353   -3.4020 O.3       1 <0>        -0.5744
     31 H1          1.0039    1.9031    0.0027 H         1 <0>         0.0541
     32 H2         -0.5459    1.8868   -0.8726 H         1 <0>         0.0534
     33 H3         -0.5289    1.8773    0.9072 H         1 <0>         0.0535
     34 H4          0.5123   -0.3556   -0.8948 H         1 <0>         0.0603
     35 H5          0.5293   -0.3651    0.8851 H         1 <0>         0.0603
     36 H6         -1.9435   -0.1821    0.9097 H         1 <0>         0.0606
     37 H7         -1.9605   -0.1726   -0.8702 H         1 <0>         0.0606
     38 H8         -0.9024   -2.4150   -0.8923 H         1 <0>         0.0605
     39 H9         -0.8854   -2.4246    0.8875 H         1 <0>         0.0606
     40 H10        -3.3581   -2.2415    0.9121 H         1 <0>         0.0605
     41 H11        -3.3751   -2.2320   -0.8677 H         1 <0>         0.0605
     42 H12        -2.3170   -4.4744   -0.8899 H         1 <0>         0.0605
     43 H13        -2.3000   -4.4840    0.8900 H         1 <0>         0.0605
     44 H14        -4.7728   -4.3010    0.9146 H         1 <0>         0.0605
     45 H15        -4.7898   -4.2914   -0.8653 H         1 <0>         0.0604
     46 H16        -3.7316   -6.5338   -0.8874 H         1 <0>         0.0605
     47 H17        -3.7146   -6.5434    0.8924 H         1 <0>         0.0606
     48 H18        -6.1874   -6.3604    0.9170 H         1 <0>         0.0606
     49 H19        -6.2044   -6.3508   -0.8628 H         1 <0>         0.0605
     50 H20        -5.1463   -8.5933   -0.8850 H         1 <0>         0.0606
     51 H21        -5.1293   -8.6028    0.8949 H         1 <0>         0.0607
     52 H22        -7.6020   -8.4198    0.9195 H         1 <0>         0.0608
     53 H23        -7.6190   -8.4102   -0.8604 H         1 <0>         0.0607
     54 H24        -6.5609  -10.6527   -0.8825 H         1 <0>         0.0611
     55 H25        -6.5439  -10.6622    0.8973 H         1 <0>         0.0613
     56 H26        -9.0167  -10.4792    0.9219 H         1 <0>         0.0617
     57 H27        -9.0337  -10.4697   -0.8579 H         1 <0>         0.0615
     58 H28        -7.9755  -12.7121   -0.8801 H         1 <0>         0.0632
     59 H29        -7.9586  -12.7217    0.8998 H         1 <0>         0.0635
     60 H30       -10.4313  -12.5386    0.9244 H         1 <0>         0.0659
     61 H31       -10.4483  -12.5291   -0.8555 H         1 <0>         0.0655
     62 H32        -9.3902  -14.7715   -0.8776 H         1 <0>         0.0738
     63 H33        -9.3732  -14.7811    0.9022 H         1 <0>         0.0740
     64 H34       -11.8459  -14.5981    0.9268 H         1 <0>         0.0874
     65 H35       -11.8629  -14.5885   -0.8531 H         1 <0>         0.0866
     66 H36       -10.8048  -16.8309   -0.8752 H         1 <0>         0.1337
     67 H37       -10.7878  -16.8405    0.9047 H         1 <0>         0.1326
     68 H38       -13.1654  -16.6625    0.8622 H         1 <0>         0.4350
     69 H39       -12.0746  -18.8145    0.8616 H         1 <0>         0.1609
     70 H40       -11.1850  -18.4307   -1.6262 H         1 <0>         0.1549
     71 H41       -13.5546  -21.7783   -1.7523 H         1 <0>         0.0870
     72 H42       -15.0751  -20.9121    0.1048 H         1 <0>         0.0958
     73 H43       -14.7479  -18.4872   -0.5643 H         1 <0>         0.1019
     74 H44       -15.4846  -19.0466    1.6401 H         1 <0>         0.4074
     75 H45       -13.0358  -22.0774    0.5821 H         1 <0>         0.3956
     76 H46       -14.7065  -20.4294   -3.3441 H         1 <0>         0.3944
     77 H47       -11.4578  -21.3329   -3.1513 H         1 <0>         0.0744
     78 H48       -12.4775  -20.2018   -4.0729 H         1 <0>         0.0718
     79 H49       -10.1643  -19.6197   -4.1990 H         1 <0>         0.3990
     80 H50       -13.1812  -16.6536   -0.7854 H         1 <0>         0.4246
@<TRIPOS>BOND
     1    1    2 1
     2    1   31 1
     3    1   32 1
     4    1   33 1
     5    2    3 1
     6    2   34 1
     7    2   35 1
     8    3    4 1
     9    3   36 1
    10    3   37 1
    11    4    5 1
    12    4   38 1
    13    4   39 1
    14    5    6 1
    15    5   40 1
    16    5   41 1
    17    6    7 1
    18    6   42 1
    19    6   43 1
    20    7    8 1
    21    7   44 1
    22    7   45 1
    23    8    9 1
    24    8   46 1
    25    8   47 1
    26    9   10 1
    27    9   48 1
    28    9   49 1
    29   10   11 1
    30   10   50 1
    31   10   51 1
    32   11   12 1
    33   11   52 1
    34   11   53 1
    35   12   13 1
    36   12   54 1
    37   12   55 1
    38   13   14 1
    39   13   56 1
    40   13   57 1
    41   14   15 1
    42   14   58 1
    43   14   59 1
    44   15   16 1
    45   15   60 1
    46   15   61 1
    47   16   17 1
    48   16   62 1
    49   16   63 1
    50   17   18 1
    51   17   64 1
    52   17   65 1
    53   18   19 1
    54   18   66 1
    55   18   67 1
    56   19   20 1
    57   19   68 1
    58   19   80 1
    59   20   25 1
    60   20   21 1
    61   20   69 1
    62   21   22 2
    63   21   70 1
    64   22   23 1
    65   22   29 1
    66   23   24 1
    67   23   28 1
    68   23   71 1
    69   24   25 1
    70   24   27 1
    71   24   72 1
    72   25   26 1
    73   25   73 1
    74   26   74 1
    75   27   75 1
    76   28   76 1
    77   29   30 1
    78   29   77 1
    79   29   78 1
    80   30   79 1
@<TRIPOS>MOLECULE
CHEMBL426933__6
   80    80     0     0     0
SMALL
USER_CHARGES

@<TRIPOS>ATOM
      1 C1         -0.0187    1.5258    0.0104 C.3       1 <0>        -0.1547
      2 C2          0.0021   -0.0041    0.0020 C.3       1 <0>        -0.1261
      3 C3         -1.4333   -0.5336    0.0129 C.3       1 <0>        -0.1213
      4 C4         -1.4126   -2.0635    0.0045 C.3       1 <0>        -0.1212
      5 C5         -2.8479   -2.5931    0.0153 C.3       1 <0>        -0.1207
      6 C6         -2.8272   -4.1229    0.0069 C.3       1 <0>        -0.1207
      7 C7         -4.2626   -4.6525    0.0178 C.3       1 <0>        -0.1207
      8 C8         -4.2418   -6.1823    0.0094 C.3       1 <0>        -0.1207
      9 C9         -5.6772   -6.7119    0.0202 C.3       1 <0>        -0.1207
     10 C10        -5.6565   -8.2417    0.0118 C.3       1 <0>        -0.1208
     11 C11        -7.0918   -8.7713    0.0227 C.3       1 <0>        -0.1209
     12 C12        -7.0711  -10.3012    0.0143 C.3       1 <0>        -0.1210
     13 C13        -8.5065  -10.8307    0.0251 C.3       1 <0>        -0.1212
     14 C14        -8.4857  -12.3606    0.0167 C.3       1 <0>        -0.1215
     15 C15        -9.9211  -12.8902    0.0276 C.3       1 <0>        -0.1214
     16 C16        -9.9004  -14.4200    0.0191 C.3       1 <0>        -0.1175
     17 C17       -11.3358  -14.9496    0.0300 C.3       1 <0>        -0.1479
     18 C18       -11.3150  -16.4794    0.0216 C.3       1 <0>        -0.0147
     19 N1        -12.6932  -16.9879    0.0320 N.4       1 <0>        -0.4971
     20 C19       -12.6732  -18.4567    0.0239 C.3       1 <0>         0.0816
     21 C20       -12.0650  -18.9389   -1.2604 C.2       1 <0>        -0.1889
     22 C21       -12.5297  -19.9257   -1.9574 C.2       1 <0>        -0.0847
     23 C22       -13.7477  -20.7188   -1.5840 C.3       1 <0>         0.1076
     24 C23       -14.0916  -20.4939   -0.1099 C.3       1 <0>         0.0883
     25 C24       -14.1032  -18.9841    0.1606 C.3       1 <0>         0.0949
     26 O1        -14.9484  -18.3327   -0.7898 O.3       1 <0>        -0.5528
     27 O2        -15.3809  -21.0421    0.1716 O.3       1 <0>        -0.5453
     28 O3        -14.8490  -20.3060   -2.3957 O.3       1 <0>        -0.5289
     29 C25       -11.8025  -20.3013   -3.2228 C.3       1 <0>         0.0967
     30 O4        -10.6800  -19.4353   -3.4020 O.3       1 <0>        -0.5747
     31 H1          1.0039    1.9031    0.0027 H         1 <0>         0.0541
     32 H2         -0.5459    1.8868   -0.8726 H         1 <0>         0.0535
     33 H3         -0.5289    1.8773    0.9072 H         1 <0>         0.0535
     34 H4          0.5123   -0.3556   -0.8948 H         1 <0>         0.0603
     35 H5          0.5293   -0.3651    0.8851 H         1 <0>         0.0603
     36 H6         -1.9435   -0.1821    0.9097 H         1 <0>         0.0606
     37 H7         -1.9605   -0.1726   -0.8702 H         1 <0>         0.0606
     38 H8         -0.9024   -2.4150   -0.8923 H         1 <0>         0.0605
     39 H9         -0.8854   -2.4246    0.8875 H         1 <0>         0.0606
     40 H10        -3.3581   -2.2415    0.9121 H         1 <0>         0.0605
     41 H11        -3.3751   -2.2320   -0.8677 H         1 <0>         0.0605
     42 H12        -2.3170   -4.4744   -0.8899 H         1 <0>         0.0605
     43 H13        -2.3000   -4.4840    0.8900 H         1 <0>         0.0605
     44 H14        -4.7728   -4.3010    0.9146 H         1 <0>         0.0605
     45 H15        -4.7898   -4.2914   -0.8653 H         1 <0>         0.0605
     46 H16        -3.7316   -6.5338   -0.8874 H         1 <0>         0.0605
     47 H17        -3.7146   -6.5434    0.8924 H         1 <0>         0.0605
     48 H18        -6.1874   -6.3604    0.9170 H         1 <0>         0.0606
     49 H19        -6.2044   -6.3508   -0.8628 H         1 <0>         0.0605
     50 H20        -5.1463   -8.5933   -0.8850 H         1 <0>         0.0606
     51 H21        -5.1293   -8.6028    0.8949 H         1 <0>         0.0606
     52 H22        -7.6020   -8.4198    0.9195 H         1 <0>         0.0608
     53 H23        -7.6190   -8.4102   -0.8604 H         1 <0>         0.0608
     54 H24        -6.5609  -10.6527   -0.8825 H         1 <0>         0.0611
     55 H25        -6.5439  -10.6622    0.8973 H         1 <0>         0.0611
     56 H26        -9.0167  -10.4792    0.9219 H         1 <0>         0.0617
     57 H27        -9.0337  -10.4697   -0.8579 H         1 <0>         0.0617
     58 H28        -7.9755  -12.7121   -0.8801 H         1 <0>         0.0633
     59 H29        -7.9586  -12.7217    0.8998 H         1 <0>         0.0632
     60 H30       -10.4313  -12.5386    0.9244 H         1 <0>         0.0658
     61 H31       -10.4483  -12.5291   -0.8555 H         1 <0>         0.0659
     62 H32        -9.3902  -14.7715   -0.8776 H         1 <0>         0.0738
     63 H33        -9.3732  -14.7811    0.9022 H         1 <0>         0.0735
     64 H34       -11.8459  -14.5981    0.9268 H         1 <0>         0.0871
     65 H35       -11.8629  -14.5885   -0.8531 H         1 <0>         0.0874
     66 H36       -10.8048  -16.8309   -0.8752 H         1 <0>         0.1341
     67 H37       -10.7878  -16.8405    0.9047 H         1 <0>         0.1316
     68 H38       -13.1654  -16.6625    0.8622 H         1 <0>         0.4286
     69 H39       -12.0746  -18.8145    0.8616 H         1 <0>         0.1556
     70 H40       -11.1850  -18.4307   -1.6262 H         1 <0>         0.1512
     71 H41       -13.5546  -21.7783   -1.7523 H         1 <0>         0.0785
     72 H42       -13.3411  -20.9731    0.5187 H         1 <0>         0.0882
     73 H43       -14.4684  -18.7955    1.1701 H         1 <0>         0.0940
     74 H44       -15.8710  -18.6204   -0.7579 H         1 <0>         0.4145
     75 H45       -15.4489  -21.9924    0.0061 H         1 <0>         0.3981
     76 H46       -14.7065  -20.4294   -3.3441 H         1 <0>         0.3838
     77 H47       -11.4578  -21.3329   -3.1513 H         1 <0>         0.0735
     78 H48       -12.4775  -20.2018   -4.0729 H         1 <0>         0.0725
     79 H49       -10.1643  -19.6197   -4.1990 H         1 <0>         0.3984
     80 H50       -13.1812  -16.6536   -0.7854 H         1 <0>         0.4368
@<TRIPOS>BOND
     1    1    2 1
     2    1   31 1
     3    1   32 1
     4    1   33 1
     5    2    3 1
     6    2   34 1
     7    2   35 1
     8    3    4 1
     9    3   36 1
    10    3   37 1
    11    4    5 1
    12    4   38 1
    13    4   39 1
    14    5    6 1
    15    5   40 1
    16    5   41 1
    17    6    7 1
    18    6   42 1
    19    6   43 1
    20    7    8 1
    21    7   44 1
    22    7   45 1
    23    8    9 1
    24    8   46 1
    25    8   47 1
    26    9   10 1
    27    9   48 1
    28    9   49 1
    29   10   11 1
    30   10   50 1
    31   10   51 1
    32   11   12 1
    33   11   52 1
    34   11   53 1
    35   12   13 1
    36   12   54 1
    37   12   55 1
    38   13   14 1
    39   13   56 1
    40   13   57 1
    41   14   15 1
    42   14   58 1
    43   14   59 1
    44   15   16 1
    45   15   60 1
    46   15   61 1
    47   16   17 1
    48   16   62 1
    49   16   63 1
    50   17   18 1
    51   17   64 1
    52   17   65 1
    53   18   19 1
    54   18   66 1
    55   18   67 1
    56   19   20 1
    57   19   68 1
    58   19   80 1
    59   20   25 1
    60   20   21 1
    61   20   69 1
    62   21   22 2
    63   21   70 1
    64   22   23 1
    65   22   29 1
    66   23   24 1
    67   23   28 1
    68   23   71 1
    69   24   25 1
    70   24   27 1
    71   24   72 1
    72   25   26 1
    73   25   73 1
    74   26   74 1
    75   27   75 1
    76   28   76 1
    77   29   30 1
    78   29   77 1
    79   29   78 1
    80   30   79 1
@<TRIPOS>MOLECULE
CHEMBL426933__7
   80    80     0     0     0
SMALL
USER_CHARGES

@<TRIPOS>ATOM
      1 C1         -0.0187    1.5258    0.0104 C.3       1 <0>        -0.1547
      2 C2          0.0021   -0.0041    0.0020 C.3       1 <0>        -0.1261
      3 C3         -1.4333   -0.5336    0.0129 C.3       1 <0>        -0.1213
      4 C4         -1.4126   -2.0635    0.0045 C.3       1 <0>        -0.1212
      5 C5         -2.8479   -2.5931    0.0153 C.3       1 <0>        -0.1207
      6 C6         -2.8272   -4.1229    0.0069 C.3       1 <0>        -0.1207
      7 C7         -4.2626   -4.6525    0.0178 C.3       1 <0>        -0.1207
      8 C8         -4.2418   -6.1823    0.0094 C.3       1 <0>        -0.1207
      9 C9         -5.6772   -6.7119    0.0202 C.3       1 <0>        -0.1207
     10 C10        -5.6565   -8.2417    0.0118 C.3       1 <0>        -0.1208
     11 C11        -7.0918   -8.7713    0.0227 C.3       1 <0>        -0.1209
     12 C12        -7.0711  -10.3012    0.0143 C.3       1 <0>        -0.1210
     13 C13        -8.5065  -10.8307    0.0251 C.3       1 <0>        -0.1212
     14 C14        -8.4857  -12.3606    0.0167 C.3       1 <0>        -0.1215
     15 C15        -9.9211  -12.8902    0.0276 C.3       1 <0>        -0.1213
     16 C16        -9.9004  -14.4200    0.0191 C.3       1 <0>        -0.1175
     17 C17       -11.3358  -14.9496    0.0300 C.3       1 <0>        -0.1483
     18 C18       -11.3150  -16.4794    0.0216 C.3       1 <0>        -0.0139
     19 N1        -12.6932  -16.9879    0.0320 N.4       1 <0>        -0.5005
     20 C19       -12.6732  -18.4567    0.0239 C.3       1 <0>         0.0796
     21 C20       -12.0650  -18.9389   -1.2604 C.2       1 <0>        -0.1892
     22 C21       -12.5297  -19.9257   -1.9574 C.2       1 <0>        -0.0914
     23 C22       -13.7477  -20.7188   -1.5840 C.3       1 <0>         0.0976
     24 C23       -14.0916  -20.4939   -0.1099 C.3       1 <0>         0.0946
     25 C24       -14.1032  -18.9841    0.1606 C.3       1 <0>         0.0958
     26 O1        -14.5820  -18.7369    1.4841 O.3       1 <0>        -0.5633
     27 O2        -15.3809  -21.0421    0.1716 O.3       1 <0>        -0.5445
     28 O3        -14.8490  -20.3060   -2.3957 O.3       1 <0>        -0.5387
     29 C25       -11.8025  -20.3013   -3.2228 C.3       1 <0>         0.0965
     30 O4        -10.6800  -19.4353   -3.4020 O.3       1 <0>        -0.5747
     31 H1          1.0039    1.9031    0.0027 H         1 <0>         0.0541
     32 H2         -0.5459    1.8868   -0.8726 H         1 <0>         0.0534
     33 H3         -0.5289    1.8773    0.9072 H         1 <0>         0.0535
     34 H4          0.5123   -0.3556   -0.8948 H         1 <0>         0.0603
     35 H5          0.5293   -0.3651    0.8851 H         1 <0>         0.0603
     36 H6         -1.9435   -0.1821    0.9097 H         1 <0>         0.0606
     37 H7         -1.9605   -0.1726   -0.8702 H         1 <0>         0.0606
     38 H8         -0.9024   -2.4150   -0.8923 H         1 <0>         0.0605
     39 H9         -0.8854   -2.4246    0.8875 H         1 <0>         0.0606
     40 H10        -3.3581   -2.2415    0.9121 H         1 <0>         0.0605
     41 H11        -3.3751   -2.2320   -0.8677 H         1 <0>         0.0605
     42 H12        -2.3170   -4.4744   -0.8899 H         1 <0>         0.0604
     43 H13        -2.3000   -4.4840    0.8900 H         1 <0>         0.0605
     44 H14        -4.7728   -4.3010    0.9146 H         1 <0>         0.0605
     45 H15        -4.7898   -4.2914   -0.8653 H         1 <0>         0.0605
     46 H16        -3.7316   -6.5338   -0.8874 H         1 <0>         0.0605
     47 H17        -3.7146   -6.5434    0.8924 H         1 <0>         0.0605
     48 H18        -6.1874   -6.3604    0.9170 H         1 <0>         0.0606
     49 H19        -6.2044   -6.3508   -0.8628 H         1 <0>         0.0605
     50 H20        -5.1463   -8.5933   -0.8850 H         1 <0>         0.0606
     51 H21        -5.1293   -8.6028    0.8949 H         1 <0>         0.0607
     52 H22        -7.6020   -8.4198    0.9195 H         1 <0>         0.0608
     53 H23        -7.6190   -8.4102   -0.8604 H         1 <0>         0.0607
     54 H24        -6.5609  -10.6527   -0.8825 H         1 <0>         0.0611
     55 H25        -6.5439  -10.6622    0.8973 H         1 <0>         0.0612
     56 H26        -9.0167  -10.4792    0.9219 H         1 <0>         0.0617
     57 H27        -9.0337  -10.4697   -0.8579 H         1 <0>         0.0616
     58 H28        -7.9755  -12.7121   -0.8801 H         1 <0>         0.0632
     59 H29        -7.9586  -12.7217    0.8998 H         1 <0>         0.0634
     60 H30       -10.4313  -12.5386    0.9244 H         1 <0>         0.0660
     61 H31       -10.4483  -12.5291   -0.8555 H         1 <0>         0.0657
     62 H32        -9.3902  -14.7715   -0.8776 H         1 <0>         0.0739
     63 H33        -9.3732  -14.7811    0.9022 H         1 <0>         0.0740
     64 H34       -11.8459  -14.5981    0.9268 H         1 <0>         0.0880
     65 H35       -11.8629  -14.5885   -0.8531 H         1 <0>         0.0872
     66 H36       -10.8048  -16.8309   -0.8752 H         1 <0>         0.1345
     67 H37       -10.7878  -16.8405    0.9047 H         1 <0>         0.1331
     68 H38       -13.1654  -16.6625    0.8622 H         1 <0>         0.4364
     69 H39       -12.0746  -18.8145    0.8616 H         1 <0>         0.1557
     70 H40       -11.1850  -18.4307   -1.6262 H         1 <0>         0.1583
     71 H41       -13.5546  -21.7783   -1.7523 H         1 <0>         0.0871
     72 H42       -13.3411  -20.9731    0.5187 H         1 <0>         0.0903
     73 H43       -14.7479  -18.4872   -0.5643 H         1 <0>         0.0962
     74 H44       -15.4846  -19.0466    1.6401 H         1 <0>         0.4154
     75 H45       -15.4489  -21.9924    0.0061 H         1 <0>         0.3995
     76 H46       -14.7065  -20.4294   -3.3441 H         1 <0>         0.3887
     77 H47       -11.4578  -21.3329   -3.1513 H         1 <0>         0.0764
     78 H48       -12.4775  -20.2018   -4.0729 H         1 <0>         0.0742
     79 H49       -10.1643  -19.6197   -4.1990 H         1 <0>         0.4000
     80 H50       -13.1812  -16.6536   -0.7854 H         1 <0>         0.4271
@<TRIPOS>BOND
     1    1    2 1
     2    1   31 1
     3    1   32 1
     4    1   33 1
     5    2    3 1
     6    2   34 1
     7    2   35 1
     8    3    4 1
     9    3   36 1
    10    3   37 1
    11    4    5 1
    12    4   38 1
    13    4   39 1
    14    5    6 1
    15    5   40 1
    16    5   41 1
    17    6    7 1
    18    6   42 1
    19    6   43 1
    20    7    8 1
    21    7   44 1
    22    7   45 1
    23    8    9 1
    24    8   46 1
    25    8   47 1
    26    9   10 1
    27    9   48 1
    28    9   49 1
    29   10   11 1
    30   10   50 1
    31   10   51 1
    32   11   12 1
    33   11   52 1
    34   11   53 1
    35   12   13 1
    36   12   54 1
    37   12   55 1
    38   13   14 1
    39   13   56 1
    40   13   57 1
    41   14   15 1
    42   14   58 1
    43   14   59 1
    44   15   16 1
    45   15   60 1
    46   15   61 1
    47   16   17 1
    48   16   62 1
    49   16   63 1
    50   17   18 1
    51   17   64 1
    52   17   65 1
    53   18   19 1
    54   18   66 1
    55   18   67 1
    56   19   20 1
    57   19   68 1
    58   19   80 1
    59   20   25 1
    60   20   21 1
    61   20   69 1
    62   21   22 2
    63   21   70 1
    64   22   23 1
    65   22   29 1
    66   23   24 1
    67   23   28 1
    68   23   71 1
    69   24   25 1
    70   24   27 1
    71   24   72 1
    72   25   26 1
    73   25   73 1
    74   26   74 1
    75   27   75 1
    76   28   76 1
    77   29   30 1
    78   29   77 1
    79   29   78 1
    80   30   79 1
@<TRIPOS>MOLECULE
CHEMBL426933__8
   80    80     0     0     0
SMALL
USER_CHARGES

@<TRIPOS>ATOM
      1 C1         -0.0187    1.5258    0.0104 C.3       1 <0>        -0.1547
      2 C2          0.0021   -0.0041    0.0020 C.3       1 <0>        -0.1261
      3 C3         -1.4333   -0.5336    0.0129 C.3       1 <0>        -0.1213
      4 C4         -1.4126   -2.0635    0.0045 C.3       1 <0>        -0.1212
      5 C5         -2.8479   -2.5931    0.0153 C.3       1 <0>        -0.1207
      6 C6         -2.8272   -4.1229    0.0069 C.3       1 <0>        -0.1207
      7 C7         -4.2626   -4.6525    0.0178 C.3       1 <0>        -0.1207
      8 C8         -4.2418   -6.1823    0.0094 C.3       1 <0>        -0.1207
      9 C9         -5.6772   -6.7119    0.0202 C.3       1 <0>        -0.1207
     10 C10        -5.6565   -8.2417    0.0118 C.3       1 <0>        -0.1208
     11 C11        -7.0918   -8.7713    0.0227 C.3       1 <0>        -0.1209
     12 C12        -7.0711  -10.3012    0.0143 C.3       1 <0>        -0.1210
     13 C13        -8.5065  -10.8307    0.0251 C.3       1 <0>        -0.1212
     14 C14        -8.4857  -12.3606    0.0167 C.3       1 <0>        -0.1215
     15 C15        -9.9211  -12.8902    0.0276 C.3       1 <0>        -0.1213
     16 C16        -9.9004  -14.4200    0.0191 C.3       1 <0>        -0.1175
     17 C17       -11.3358  -14.9496    0.0300 C.3       1 <0>        -0.1483
     18 C18       -11.3150  -16.4794    0.0216 C.3       1 <0>        -0.0139
     19 N1        -12.6932  -16.9879    0.0320 N.4       1 <0>        -0.5005
     20 C19       -12.6732  -18.4567    0.0239 C.3       1 <0>         0.0796
     21 C20       -12.0406  -18.9526    1.2912 C.2       1 <0>        -0.1892
     22 C21       -12.4920  -19.9469    1.9863 C.2       1 <0>        -0.0913
     23 C22       -13.7170  -20.7361    1.6277 C.3       1 <0>         0.0976
     24 C23       -14.0890  -20.4953    0.1630 C.3       1 <0>         0.0946
     25 C24       -14.1056  -18.9828   -0.0910 C.3       1 <0>         0.0958
     26 O1        -14.6095  -18.7214   -1.4024 O.3       1 <0>        -0.5633
     27 O2        -15.3835  -21.0407   -0.0997 O.3       1 <0>        -0.5445
     28 O3        -14.8026  -20.3321    2.4647 O.3       1 <0>        -0.5387
     29 C25       -11.7409  -20.3359    3.2335 C.3       1 <0>         0.0965
     30 O4        -10.6151  -19.4718    3.4005 O.3       1 <0>        -0.5747
     31 H1          1.0039    1.9031    0.0027 H         1 <0>         0.0541
     32 H2         -0.5459    1.8868   -0.8726 H         1 <0>         0.0535
     33 H3         -0.5289    1.8773    0.9072 H         1 <0>         0.0534
     34 H4          0.5123   -0.3556   -0.8948 H         1 <0>         0.0603
     35 H5          0.5293   -0.3651    0.8851 H         1 <0>         0.0603
     36 H6         -1.9435   -0.1821    0.9097 H         1 <0>         0.0606
     37 H7         -1.9605   -0.1726   -0.8702 H         1 <0>         0.0606
     38 H8         -0.9024   -2.4150   -0.8923 H         1 <0>         0.0606
     39 H9         -0.8854   -2.4246    0.8875 H         1 <0>         0.0605
     40 H10        -3.3581   -2.2415    0.9121 H         1 <0>         0.0605
     41 H11        -3.3751   -2.2320   -0.8677 H         1 <0>         0.0605
     42 H12        -2.3170   -4.4744   -0.8899 H         1 <0>         0.0605
     43 H13        -2.3000   -4.4840    0.8900 H         1 <0>         0.0604
     44 H14        -4.7728   -4.3010    0.9146 H         1 <0>         0.0605
     45 H15        -4.7898   -4.2914   -0.8653 H         1 <0>         0.0605
     46 H16        -3.7316   -6.5338   -0.8874 H         1 <0>         0.0605
     47 H17        -3.7146   -6.5434    0.8924 H         1 <0>         0.0605
     48 H18        -6.1874   -6.3604    0.9170 H         1 <0>         0.0605
     49 H19        -6.2044   -6.3508   -0.8628 H         1 <0>         0.0606
     50 H20        -5.1463   -8.5933   -0.8850 H         1 <0>         0.0607
     51 H21        -5.1293   -8.6028    0.8949 H         1 <0>         0.0606
     52 H22        -7.6020   -8.4198    0.9195 H         1 <0>         0.0607
     53 H23        -7.6190   -8.4102   -0.8604 H         1 <0>         0.0608
     54 H24        -6.5609  -10.6527   -0.8825 H         1 <0>         0.0612
     55 H25        -6.5439  -10.6622    0.8973 H         1 <0>         0.0611
     56 H26        -9.0167  -10.4792    0.9219 H         1 <0>         0.0616
     57 H27        -9.0337  -10.4697   -0.8579 H         1 <0>         0.0618
     58 H28        -7.9755  -12.7121   -0.8801 H         1 <0>         0.0634
     59 H29        -7.9586  -12.7217    0.8998 H         1 <0>         0.0632
     60 H30       -10.4313  -12.5386    0.9244 H         1 <0>         0.0657
     61 H31       -10.4483  -12.5291   -0.8555 H         1 <0>         0.0660
     62 H32        -9.3902  -14.7715   -0.8776 H         1 <0>         0.0740
     63 H33        -9.3732  -14.7811    0.9022 H         1 <0>         0.0739
     64 H34       -11.8459  -14.5981    0.9268 H         1 <0>         0.0872
     65 H35       -11.8629  -14.5885   -0.8531 H         1 <0>         0.0880
     66 H36       -10.8048  -16.8309   -0.8752 H         1 <0>         0.1331
     67 H37       -10.7878  -16.8405    0.9047 H         1 <0>         0.1345
     68 H38       -13.1654  -16.6625    0.8622 H         1 <0>         0.4271
     69 H39       -12.0907  -18.8055   -0.8288 H         1 <0>         0.1557
     70 H40       -11.1534  -18.4487    1.6451 H         1 <0>         0.1583
     71 H41       -13.5209  -21.7973    1.7809 H         1 <0>         0.0872
     72 H42       -13.3507  -20.9677   -0.4849 H         1 <0>         0.0903
     73 H43       -14.7363  -18.4937    0.6514 H         1 <0>         0.0962
     74 H44       -15.5150  -19.0295   -1.5445 H         1 <0>         0.4154
     75 H45       -15.4484  -21.9927    0.0568 H         1 <0>         0.3995
     76 H46       -14.6421  -20.4657    3.4088 H         1 <0>         0.3887
     77 H47       -12.3995  -20.2457    4.0973 H         1 <0>         0.0742
     78 H48       -11.3977  -21.3667    3.1443 H         1 <0>         0.0764
     79 H49       -10.0842  -19.6647    4.1855 H         1 <0>         0.4000
     80 H50       -13.1812  -16.6536   -0.7854 H         1 <0>         0.4364
@<TRIPOS>BOND
     1    1    2 1
     2    1   31 1
     3    1   32 1
     4    1   33 1
     5    2    3 1
     6    2   34 1
     7    2   35 1
     8    3    4 1
     9    3   36 1
    10    3   37 1
    11    4    5 1
    12    4   38 1
    13    4   39 1
    14    5    6 1
    15    5   40 1
    16    5   41 1
    17    6    7 1
    18    6   42 1
    19    6   43 1
    20    7    8 1
    21    7   44 1
    22    7   45 1
    23    8    9 1
    24    8   46 1
    25    8   47 1
    26    9   10 1
    27    9   48 1
    28    9   49 1
    29   10   11 1
    30   10   50 1
    31   10   51 1
    32   11   12 1
    33   11   52 1
    34   11   53 1
    35   12   13 1
    36   12   54 1
    37   12   55 1
    38   13   14 1
    39   13   56 1
    40   13   57 1
    41   14   15 1
    42   14   58 1
    43   14   59 1
    44   15   16 1
    45   15   60 1
    46   15   61 1
    47   16   17 1
    48   16   62 1
    49   16   63 1
    50   17   18 1
    51   17   64 1
    52   17   65 1
    53   18   19 1
    54   18   66 1
    55   18   67 1
    56   19   20 1
    57   19   68 1
    58   19   80 1
    59   20   25 1
    60   20   21 1
    61   20   69 1
    62   21   22 2
    63   21   70 1
    64   22   23 1
    65   22   29 1
    66   23   24 1
    67   23   28 1
    68   23   71 1
    69   24   25 1
    70   24   27 1
    71   24   72 1
    72   25   26 1
    73   25   73 1
    74   26   74 1
    75   27   75 1
    76   28   76 1
    77   29   30 1
    78   29   77 1
    79   29   78 1
    80   30   79 1
@<TRIPOS>MOLECULE
CHEMBL426933__9
   80    80     0     0     0
SMALL
USER_CHARGES

@<TRIPOS>ATOM
      1 C1         -0.0187    1.5258    0.0104 C.3       1 <0>        -0.1547
      2 C2          0.0021   -0.0041    0.0020 C.3       1 <0>        -0.1261
      3 C3         -1.4333   -0.5336    0.0129 C.3       1 <0>        -0.1213
      4 C4         -1.4126   -2.0635    0.0045 C.3       1 <0>        -0.1212
      5 C5         -2.8479   -2.5931    0.0153 C.3       1 <0>        -0.1207
      6 C6         -2.8272   -4.1229    0.0069 C.3       1 <0>        -0.1207
      7 C7         -4.2626   -4.6525    0.0178 C.3       1 <0>        -0.1207
      8 C8         -4.2418   -6.1823    0.0094 C.3       1 <0>        -0.1207
      9 C9         -5.6772   -6.7119    0.0202 C.3       1 <0>        -0.1207
     10 C10        -5.6565   -8.2417    0.0118 C.3       1 <0>        -0.1208
     11 C11        -7.0918   -8.7713    0.0227 C.3       1 <0>        -0.1209
     12 C12        -7.0711  -10.3012    0.0143 C.3       1 <0>        -0.1210
     13 C13        -8.5065  -10.8307    0.0251 C.3       1 <0>        -0.1212
     14 C14        -8.4857  -12.3606    0.0167 C.3       1 <0>        -0.1215
     15 C15        -9.9211  -12.8902    0.0276 C.3       1 <0>        -0.1214
     16 C16        -9.9004  -14.4200    0.0191 C.3       1 <0>        -0.1175
     17 C17       -11.3358  -14.9496    0.0300 C.3       1 <0>        -0.1479
     18 C18       -11.3150  -16.4794    0.0216 C.3       1 <0>        -0.0147
     19 N1        -12.6932  -16.9879    0.0320 N.4       1 <0>        -0.4971
     20 C19       -12.6732  -18.4567    0.0239 C.3       1 <0>         0.0816
     21 C20       -12.0406  -18.9526    1.2912 C.2       1 <0>        -0.1889
     22 C21       -12.4920  -19.9469    1.9863 C.2       1 <0>        -0.0847
     23 C22       -13.7170  -20.7361    1.6277 C.3       1 <0>         0.1076
     24 C23       -14.0890  -20.4953    0.1630 C.3       1 <0>         0.0883
     25 C24       -14.1056  -18.9828   -0.0910 C.3       1 <0>         0.0949
     26 O1        -14.9324  -18.3416    0.8823 O.3       1 <0>        -0.5528
     27 O2        -15.3835  -21.0407   -0.0997 O.3       1 <0>        -0.5453
     28 O3        -14.8026  -20.3321    2.4647 O.3       1 <0>        -0.5289
     29 C25       -11.7409  -20.3359    3.2335 C.3       1 <0>         0.0967
     30 O4        -10.6151  -19.4718    3.4005 O.3       1 <0>        -0.5747
     31 H1          1.0039    1.9031    0.0027 H         1 <0>         0.0541
     32 H2         -0.5459    1.8868   -0.8726 H         1 <0>         0.0535
     33 H3         -0.5289    1.8773    0.9072 H         1 <0>         0.0534
     34 H4          0.5123   -0.3556   -0.8948 H         1 <0>         0.0603
     35 H5          0.5293   -0.3651    0.8851 H         1 <0>         0.0603
     36 H6         -1.9435   -0.1821    0.9097 H         1 <0>         0.0606
     37 H7         -1.9605   -0.1726   -0.8702 H         1 <0>         0.0606
     38 H8         -0.9024   -2.4150   -0.8923 H         1 <0>         0.0605
     39 H9         -0.8854   -2.4246    0.8875 H         1 <0>         0.0605
     40 H10        -3.3581   -2.2415    0.9121 H         1 <0>         0.0605
     41 H11        -3.3751   -2.2320   -0.8677 H         1 <0>         0.0605
     42 H12        -2.3170   -4.4744   -0.8899 H         1 <0>         0.0605
     43 H13        -2.3000   -4.4840    0.8900 H         1 <0>         0.0605
     44 H14        -4.7728   -4.3010    0.9146 H         1 <0>         0.0605
     45 H15        -4.7898   -4.2914   -0.8653 H         1 <0>         0.0605
     46 H16        -3.7316   -6.5338   -0.8874 H         1 <0>         0.0605
     47 H17        -3.7146   -6.5434    0.8924 H         1 <0>         0.0605
     48 H18        -6.1874   -6.3604    0.9170 H         1 <0>         0.0605
     49 H19        -6.2044   -6.3508   -0.8628 H         1 <0>         0.0606
     50 H20        -5.1463   -8.5933   -0.8850 H         1 <0>         0.0607
     51 H21        -5.1293   -8.6028    0.8949 H         1 <0>         0.0606
     52 H22        -7.6020   -8.4198    0.9195 H         1 <0>         0.0608
     53 H23        -7.6190   -8.4102   -0.8604 H         1 <0>         0.0608
     54 H24        -6.5609  -10.6527   -0.8825 H         1 <0>         0.0611
     55 H25        -6.5439  -10.6622    0.8973 H         1 <0>         0.0611
     56 H26        -9.0167  -10.4792    0.9219 H         1 <0>         0.0617
     57 H27        -9.0337  -10.4697   -0.8579 H         1 <0>         0.0617
     58 H28        -7.9755  -12.7121   -0.8801 H         1 <0>         0.0632
     59 H29        -7.9586  -12.7217    0.8998 H         1 <0>         0.0633
     60 H30       -10.4313  -12.5386    0.9244 H         1 <0>         0.0659
     61 H31       -10.4483  -12.5291   -0.8555 H         1 <0>         0.0658
     62 H32        -9.3902  -14.7715   -0.8776 H         1 <0>         0.0735
     63 H33        -9.3732  -14.7811    0.9022 H         1 <0>         0.0738
     64 H34       -11.8459  -14.5981    0.9268 H         1 <0>         0.0874
     65 H35       -11.8629  -14.5885   -0.8531 H         1 <0>         0.0871
     66 H36       -10.8048  -16.8309   -0.8752 H         1 <0>         0.1316
     67 H37       -10.7878  -16.8405    0.9047 H         1 <0>         0.1341
     68 H38       -13.1654  -16.6625    0.8622 H         1 <0>         0.4368
     69 H39       -12.0907  -18.8055   -0.8288 H         1 <0>         0.1556
     70 H40       -11.1534  -18.4487    1.6451 H         1 <0>         0.1512
     71 H41       -13.5209  -21.7973    1.7809 H         1 <0>         0.0785
     72 H42       -13.3507  -20.9677   -0.4849 H         1 <0>         0.0882
     73 H43       -14.4900  -18.7834   -1.0913 H         1 <0>         0.0940
     74 H44       -15.8555  -18.6291    0.8649 H         1 <0>         0.4145
     75 H45       -15.4484  -21.9927    0.0568 H         1 <0>         0.3981
     76 H46       -14.6421  -20.4657    3.4088 H         1 <0>         0.3838
     77 H47       -12.3995  -20.2457    4.0973 H         1 <0>         0.0725
     78 H48       -11.3977  -21.3667    3.1443 H         1 <0>         0.0735
     79 H49       -10.0842  -19.6647    4.1855 H         1 <0>         0.3984
     80 H50       -13.1812  -16.6536   -0.7854 H         1 <0>         0.4286
@<TRIPOS>BOND
     1    1    2 1
     2    1   31 1
     3    1   32 1
     4    1   33 1
     5    2    3 1
     6    2   34 1
     7    2   35 1
     8    3    4 1
     9    3   36 1
    10    3   37 1
    11    4    5 1
    12    4   38 1
    13    4   39 1
    14    5    6 1
    15    5   40 1
    16    5   41 1
    17    6    7 1
    18    6   42 1
    19    6   43 1
    20    7    8 1
    21    7   44 1
    22    7   45 1
    23    8    9 1
    24    8   46 1
    25    8   47 1
    26    9   10 1
    27    9   48 1
    28    9   49 1
    29   10   11 1
    30   10   50 1
    31   10   51 1
    32   11   12 1
    33   11   52 1
    34   11   53 1
    35   12   13 1
    36   12   54 1
    37   12   55 1
    38   13   14 1
    39   13   56 1
    40   13   57 1
    41   14   15 1
    42   14   58 1
    43   14   59 1
    44   15   16 1
    45   15   60 1
    46   15   61 1
    47   16   17 1
    48   16   62 1
    49   16   63 1
    50   17   18 1
    51   17   64 1
    52   17   65 1
    53   18   19 1
    54   18   66 1
    55   18   67 1
    56   19   20 1
    57   19   68 1
    58   19   80 1
    59   20   25 1
    60   20   21 1
    61   20   69 1
    62   21   22 2
    63   21   70 1
    64   22   23 1
    65   22   29 1
    66   23   24 1
    67   23   28 1
    68   23   71 1
    69   24   25 1
    70   24   27 1
    71   24   72 1
    72   25   26 1
    73   25   73 1
    74   26   74 1
    75   27   75 1
    76   28   76 1
    77   29   30 1
    78   29   77 1
    79   29   78 1
    80   30   79 1
@<TRIPOS>MOLECULE
CHEMBL426933__10
   80    80     0     0     0
SMALL
USER_CHARGES

@<TRIPOS>ATOM
      1 C1         -0.0187    1.5258    0.0104 C.3       1 <0>        -0.1546
      2 C2          0.0021   -0.0041    0.0020 C.3       1 <0>        -0.1261
      3 C3         -1.4333   -0.5336    0.0129 C.3       1 <0>        -0.1213
      4 C4         -1.4126   -2.0635    0.0045 C.3       1 <0>        -0.1212
      5 C5         -2.8479   -2.5931    0.0153 C.3       1 <0>        -0.1207
      6 C6         -2.8272   -4.1229    0.0069 C.3       1 <0>        -0.1207
      7 C7         -4.2626   -4.6525    0.0178 C.3       1 <0>        -0.1207
      8 C8         -4.2418   -6.1823    0.0094 C.3       1 <0>        -0.1207
      9 C9         -5.6772   -6.7119    0.0202 C.3       1 <0>        -0.1207
     10 C10        -5.6565   -8.2417    0.0118 C.3       1 <0>        -0.1208
     11 C11        -7.0918   -8.7713    0.0227 C.3       1 <0>        -0.1209
     12 C12        -7.0711  -10.3012    0.0143 C.3       1 <0>        -0.1211
     13 C13        -8.5065  -10.8307    0.0251 C.3       1 <0>        -0.1211
     14 C14        -8.4857  -12.3606    0.0167 C.3       1 <0>        -0.1217
     15 C15        -9.9211  -12.8902    0.0276 C.3       1 <0>        -0.1212
     16 C16        -9.9004  -14.4200    0.0191 C.3       1 <0>        -0.1176
     17 C17       -11.3358  -14.9496    0.0300 C.3       1 <0>        -0.1488
     18 C18       -11.3150  -16.4794    0.0216 C.3       1 <0>        -0.0101
     19 N1        -12.6932  -16.9879    0.0320 N.4       1 <0>        -0.5038
     20 C19       -12.6732  -18.4567    0.0239 C.3       1 <0>         0.0741
     21 C20       -12.0406  -18.9526    1.2912 C.2       1 <0>        -0.1941
     22 C21       -12.7041  -19.4364    2.2919 C.2       1 <0>        -0.0767
     23 C22       -14.1977  -19.5788    2.3204 C.3       1 <0>         0.1013
     24 C23       -14.8310  -18.7090    1.2324 C.3       1 <0>         0.0790
     25 C24       -14.1056  -18.9828   -0.0910 C.3       1 <0>         0.1015
     26 O1        -14.0820  -20.3891   -0.3434 O.3       1 <0>        -0.5378
     27 O2        -16.2150  -19.0388    1.0987 O.3       1 <0>        -0.5493
     28 O3        -14.6881  -19.1701    3.5989 O.3       1 <0>        -0.5560
     29 C25       -11.9282  -19.8850    3.5034 C.3       1 <0>         0.0926
     30 O4        -10.5329  -19.6696    3.2822 O.3       1 <0>        -0.5709
     31 H1          1.0039    1.9031    0.0027 H         1 <0>         0.0541
     32 H2         -0.5459    1.8868   -0.8726 H         1 <0>         0.0535
     33 H3         -0.5289    1.8773    0.9072 H         1 <0>         0.0534
     34 H4          0.5123   -0.3556   -0.8948 H         1 <0>         0.0603
     35 H5          0.5293   -0.3651    0.8851 H         1 <0>         0.0603
     36 H6         -1.9435   -0.1821    0.9097 H         1 <0>         0.0606
     37 H7         -1.9605   -0.1726   -0.8702 H         1 <0>         0.0606
     38 H8         -0.9024   -2.4150   -0.8923 H         1 <0>         0.0606
     39 H9         -0.8854   -2.4246    0.8875 H         1 <0>         0.0606
     40 H10        -3.3581   -2.2415    0.9121 H         1 <0>         0.0605
     41 H11        -3.3751   -2.2320   -0.8677 H         1 <0>         0.0605
     42 H12        -2.3170   -4.4744   -0.8899 H         1 <0>         0.0605
     43 H13        -2.3000   -4.4840    0.8900 H         1 <0>         0.0605
     44 H14        -4.7728   -4.3010    0.9146 H         1 <0>         0.0604
     45 H15        -4.7898   -4.2914   -0.8653 H         1 <0>         0.0605
     46 H16        -3.7316   -6.5338   -0.8874 H         1 <0>         0.0606
     47 H17        -3.7146   -6.5434    0.8924 H         1 <0>         0.0605
     48 H18        -6.1874   -6.3604    0.9170 H         1 <0>         0.0605
     49 H19        -6.2044   -6.3508   -0.8628 H         1 <0>         0.0606
     50 H20        -5.1463   -8.5933   -0.8850 H         1 <0>         0.0608
     51 H21        -5.1293   -8.6028    0.8949 H         1 <0>         0.0607
     52 H22        -7.6020   -8.4198    0.9195 H         1 <0>         0.0607
     53 H23        -7.6190   -8.4102   -0.8604 H         1 <0>         0.0608
     54 H24        -6.5609  -10.6527   -0.8825 H         1 <0>         0.0613
     55 H25        -6.5439  -10.6622    0.8973 H         1 <0>         0.0612
     56 H26        -9.0167  -10.4792    0.9219 H         1 <0>         0.0615
     57 H27        -9.0337  -10.4697   -0.8579 H         1 <0>         0.0617
     58 H28        -7.9755  -12.7121   -0.8801 H         1 <0>         0.0636
     59 H29        -7.9586  -12.7217    0.8998 H         1 <0>         0.0634
     60 H30       -10.4313  -12.5386    0.9244 H         1 <0>         0.0656
     61 H31       -10.4483  -12.5291   -0.8555 H         1 <0>         0.0659
     62 H32        -9.3902  -14.7715   -0.8776 H         1 <0>         0.0746
     63 H33        -9.3732  -14.7811    0.9022 H         1 <0>         0.0744
     64 H34       -11.8459  -14.5981    0.9268 H         1 <0>         0.0866
     65 H35       -11.8629  -14.5885   -0.8531 H         1 <0>         0.0880
     66 H36       -10.8048  -16.8309   -0.8752 H         1 <0>         0.1353
     67 H37       -10.7878  -16.8405    0.9047 H         1 <0>         0.1365
     68 H38       -13.1654  -16.6625    0.8622 H         1 <0>         0.4241
     69 H39       -12.0907  -18.8055   -0.8288 H         1 <0>         0.1630
     70 H40       -10.9649  -18.9030    1.3733 H         1 <0>         0.1556
     71 H41       -14.4645  -20.6218    2.1500 H         1 <0>         0.1010
     72 H42       -14.7258  -17.6568    1.4970 H         1 <0>         0.0679
     73 H43       -14.6201  -18.4702   -0.9038 H         1 <0>         0.0968
     74 H44       -14.9587  -20.7884   -0.4277 H         1 <0>         0.4102
     75 H45       -16.7310  -18.9046    1.9054 H         1 <0>         0.4054
     76 H46       -14.3372  -19.6855    4.3380 H         1 <0>         0.3942
     77 H47       -12.2506  -19.3132    4.3736 H         1 <0>         0.0767
     78 H48       -12.1088  -20.9456    3.6783 H         1 <0>         0.0756
     79 H49        -9.9715  -19.9363    4.0229 H         1 <0>         0.3992
     80 H50       -13.1812  -16.6536   -0.7854 H         1 <0>         0.4291
@<TRIPOS>BOND
     1    1    2 1
     2    1   31 1
     3    1   32 1
     4    1   33 1
     5    2    3 1
     6    2   34 1
     7    2   35 1
     8    3    4 1
     9    3   36 1
    10    3   37 1
    11    4    5 1
    12    4   38 1
    13    4   39 1
    14    5    6 1
    15    5   40 1
    16    5   41 1
    17    6    7 1
    18    6   42 1
    19    6   43 1
    20    7    8 1
    21    7   44 1
    22    7   45 1
    23    8    9 1
    24    8   46 1
    25    8   47 1
    26    9   10 1
    27    9   48 1
    28    9   49 1
    29   10   11 1
    30   10   50 1
    31   10   51 1
    32   11   12 1
    33   11   52 1
    34   11   53 1
    35   12   13 1
    36   12   54 1
    37   12   55 1
    38   13   14 1
    39   13   56 1
    40   13   57 1
    41   14   15 1
    42   14   58 1
    43   14   59 1
    44   15   16 1
    45   15   60 1
    46   15   61 1
    47   16   17 1
    48   16   62 1
    49   16   63 1
    50   17   18 1
    51   17   64 1
    52   17   65 1
    53   18   19 1
    54   18   66 1
    55   18   67 1
    56   19   20 1
    57   19   68 1
    58   19   80 1
    59   20   25 1
    60   20   21 1
    61   20   69 1
    62   21   22 2
    63   21   70 1
    64   22   23 1
    65   22   29 1
    66   23   24 1
    67   23   28 1
    68   23   71 1
    69   24   25 1
    70   24   27 1
    71   24   72 1
    72   25   26 1
    73   25   73 1
    74   26   74 1
    75   27   75 1
    76   28   76 1
    77   29   30 1
    78   29   77 1
    79   29   78 1
    80   30   79 1
@<TRIPOS>MOLECULE
CHEMBL426933__11
   80    80     0     0     0
SMALL
USER_CHARGES

@<TRIPOS>ATOM
      1 C1         -0.0187    1.5258    0.0104 C.3       1 <0>        -0.1546
      2 C2          0.0021   -0.0041    0.0020 C.3       1 <0>        -0.1261
      3 C3         -1.4333   -0.5336    0.0129 C.3       1 <0>        -0.1213
      4 C4         -1.4126   -2.0635    0.0045 C.3       1 <0>        -0.1212
      5 C5         -2.8479   -2.5931    0.0153 C.3       1 <0>        -0.1207
      6 C6         -2.8272   -4.1229    0.0069 C.3       1 <0>        -0.1207
      7 C7         -4.2626   -4.6525    0.0178 C.3       1 <0>        -0.1207
      8 C8         -4.2418   -6.1823    0.0094 C.3       1 <0>        -0.1207
      9 C9         -5.6772   -6.7119    0.0202 C.3       1 <0>        -0.1207
     10 C10        -5.6565   -8.2417    0.0118 C.3       1 <0>        -0.1208
     11 C11        -7.0918   -8.7713    0.0227 C.3       1 <0>        -0.1209
     12 C12        -7.0711  -10.3012    0.0143 C.3       1 <0>        -0.1211
     13 C13        -8.5065  -10.8307    0.0251 C.3       1 <0>        -0.1211
     14 C14        -8.4857  -12.3606    0.0167 C.3       1 <0>        -0.1216
     15 C15        -9.9211  -12.8902    0.0276 C.3       1 <0>        -0.1211
     16 C16        -9.9004  -14.4200    0.0191 C.3       1 <0>        -0.1177
     17 C17       -11.3358  -14.9496    0.0300 C.3       1 <0>        -0.1474
     18 C18       -11.3150  -16.4794    0.0216 C.3       1 <0>        -0.0145
     19 N1        -12.6932  -16.9879    0.0320 N.4       1 <0>        -0.4999
     20 C19       -12.6732  -18.4567    0.0239 C.3       1 <0>         0.0855
     21 C20       -12.0406  -18.9526    1.2912 C.2       1 <0>        -0.1755
     22 C21       -12.4920  -19.9469    1.9863 C.2       1 <0>        -0.0893
     23 C22       -13.7165  -20.7367    1.6272 C.3       1 <0>         0.1100
     24 C23       -14.0884  -20.4956    0.1625 C.3       1 <0>         0.0857
     25 C24       -14.1056  -18.9828   -0.0910 C.3       1 <0>         0.0972
     26 O1        -14.9324  -18.3416    0.8823 O.3       1 <0>        -0.5478
     27 O2        -13.1198  -21.1140   -0.6870 O.3       1 <0>        -0.5522
     28 O3        -14.8024  -20.3336    2.4641 O.3       1 <0>        -0.5396
     29 C25       -11.7409  -20.3359    3.2335 C.3       1 <0>         0.0976
     30 O4        -10.6151  -19.4718    3.4005 O.3       1 <0>        -0.5743
     31 H1          1.0039    1.9031    0.0027 H         1 <0>         0.0541
     32 H2         -0.5459    1.8868   -0.8726 H         1 <0>         0.0535
     33 H3         -0.5289    1.8773    0.9072 H         1 <0>         0.0534
     34 H4          0.5123   -0.3556   -0.8948 H         1 <0>         0.0603
     35 H5          0.5293   -0.3651    0.8851 H         1 <0>         0.0603
     36 H6         -1.9435   -0.1821    0.9097 H         1 <0>         0.0606
     37 H7         -1.9605   -0.1726   -0.8702 H         1 <0>         0.0606
     38 H8         -0.9024   -2.4150   -0.8923 H         1 <0>         0.0606
     39 H9         -0.8854   -2.4246    0.8875 H         1 <0>         0.0606
     40 H10        -3.3581   -2.2415    0.9121 H         1 <0>         0.0605
     41 H11        -3.3751   -2.2320   -0.8677 H         1 <0>         0.0605
     42 H12        -2.3170   -4.4744   -0.8899 H         1 <0>         0.0605
     43 H13        -2.3000   -4.4840    0.8900 H         1 <0>         0.0605
     44 H14        -4.7728   -4.3010    0.9146 H         1 <0>         0.0605
     45 H15        -4.7898   -4.2914   -0.8653 H         1 <0>         0.0605
     46 H16        -3.7316   -6.5338   -0.8874 H         1 <0>         0.0605
     47 H17        -3.7146   -6.5434    0.8924 H         1 <0>         0.0605
     48 H18        -6.1874   -6.3604    0.9170 H         1 <0>         0.0605
     49 H19        -6.2044   -6.3508   -0.8628 H         1 <0>         0.0605
     50 H20        -5.1463   -8.5933   -0.8850 H         1 <0>         0.0607
     51 H21        -5.1293   -8.6028    0.8949 H         1 <0>         0.0606
     52 H22        -7.6020   -8.4198    0.9195 H         1 <0>         0.0607
     53 H23        -7.6190   -8.4102   -0.8604 H         1 <0>         0.0608
     54 H24        -6.5609  -10.6527   -0.8825 H         1 <0>         0.0612
     55 H25        -6.5439  -10.6622    0.8973 H         1 <0>         0.0611
     56 H26        -9.0167  -10.4792    0.9219 H         1 <0>         0.0616
     57 H27        -9.0337  -10.4697   -0.8579 H         1 <0>         0.0616
     58 H28        -7.9755  -12.7121   -0.8801 H         1 <0>         0.0633
     59 H29        -7.9586  -12.7217    0.8998 H         1 <0>         0.0633
     60 H30       -10.4313  -12.5386    0.9244 H         1 <0>         0.0657
     61 H31       -10.4483  -12.5291   -0.8555 H         1 <0>         0.0656
     62 H32        -9.3902  -14.7715   -0.8776 H         1 <0>         0.0736
     63 H33        -9.3732  -14.7811    0.9022 H         1 <0>         0.0737
     64 H34       -11.8459  -14.5981    0.9268 H         1 <0>         0.0868
     65 H35       -11.8629  -14.5885   -0.8531 H         1 <0>         0.0867
     66 H36       -10.8048  -16.8309   -0.8752 H         1 <0>         0.1312
     67 H37       -10.7878  -16.8405    0.9047 H         1 <0>         0.1332
     68 H38       -13.1654  -16.6625    0.8622 H         1 <0>         0.4344
     69 H39       -12.0907  -18.8055   -0.8288 H         1 <0>         0.1600
     70 H40       -11.1534  -18.4487    1.6451 H         1 <0>         0.1478
     71 H41       -13.5197  -21.7978    1.7801 H         1 <0>         0.0787
     72 H42       -15.0754  -20.9121   -0.0382 H         1 <0>         0.0940
     73 H43       -14.4900  -18.7834   -1.0913 H         1 <0>         0.0946
     74 H44       -15.8555  -18.6291    0.8649 H         1 <0>         0.4100
     75 H45       -13.0450  -22.0706   -0.5669 H         1 <0>         0.3998
     76 H46       -14.6420  -20.4675    3.4082 H         1 <0>         0.3898
     77 H47       -12.3995  -20.2457    4.0973 H         1 <0>         0.0701
     78 H48       -11.3977  -21.3667    3.1443 H         1 <0>         0.0716
     79 H49       -10.0842  -19.6647    4.1855 H         1 <0>         0.3975
     80 H50       -13.1812  -16.6536   -0.7854 H         1 <0>         0.4272
@<TRIPOS>BOND
     1    1    2 1
     2    1   31 1
     3    1   32 1
     4    1   33 1
     5    2    3 1
     6    2   34 1
     7    2   35 1
     8    3    4 1
     9    3   36 1
    10    3   37 1
    11    4    5 1
    12    4   38 1
    13    4   39 1
    14    5    6 1
    15    5   40 1
    16    5   41 1
    17    6    7 1
    18    6   42 1
    19    6   43 1
    20    7    8 1
    21    7   44 1
    22    7   45 1
    23    8    9 1
    24    8   46 1
    25    8   47 1
    26    9   10 1
    27    9   48 1
    28    9   49 1
    29   10   11 1
    30   10   50 1
    31   10   51 1
    32   11   12 1
    33   11   52 1
    34   11   53 1
    35   12   13 1
    36   12   54 1
    37   12   55 1
    38   13   14 1
    39   13   56 1
    40   13   57 1
    41   14   15 1
    42   14   58 1
    43   14   59 1
    44   15   16 1
    45   15   60 1
    46   15   61 1
    47   16   17 1
    48   16   62 1
    49   16   63 1
    50   17   18 1
    51   17   64 1
    52   17   65 1
    53   18   19 1
    54   18   66 1
    55   18   67 1
    56   19   20 1
    57   19   68 1
    58   19   80 1
    59   20   25 1
    60   20   21 1
    61   20   69 1
    62   21   22 2
    63   21   70 1
    64   22   23 1
    65   22   29 1
    66   23   24 1
    67   23   28 1
    68   23   71 1
    69   24   25 1
    70   24   27 1
    71   24   72 1
    72   25   26 1
    73   25   73 1
    74   26   74 1
    75   27   75 1
    76   28   76 1
    77   29   30 1
    78   29   77 1
    79   29   78 1
    80   30   79 1
@<TRIPOS>MOLECULE
CHEMBL426933__12
   80    80     0     0     0
SMALL
USER_CHARGES

@<TRIPOS>ATOM
      1 C1         -0.0187    1.5258    0.0104 C.3       1 <0>        -0.1547
      2 C2          0.0021   -0.0041    0.0020 C.3       1 <0>        -0.1261
      3 C3         -1.4333   -0.5336    0.0129 C.3       1 <0>        -0.1213
      4 C4         -1.4126   -2.0635    0.0045 C.3       1 <0>        -0.1212
      5 C5         -2.8479   -2.5931    0.0153 C.3       1 <0>        -0.1207
      6 C6         -2.8272   -4.1229    0.0069 C.3       1 <0>        -0.1207
      7 C7         -4.2626   -4.6525    0.0178 C.3       1 <0>        -0.1207
      8 C8         -4.2418   -6.1823    0.0094 C.3       1 <0>        -0.1207
      9 C9         -5.6772   -6.7119    0.0202 C.3       1 <0>        -0.1207
     10 C10        -5.6565   -8.2417    0.0118 C.3       1 <0>        -0.1208
     11 C11        -7.0918   -8.7713    0.0227 C.3       1 <0>        -0.1209
     12 C12        -7.0711  -10.3012    0.0143 C.3       1 <0>        -0.1211
     13 C13        -8.5065  -10.8307    0.0251 C.3       1 <0>        -0.1211
     14 C14        -8.4857  -12.3606    0.0167 C.3       1 <0>        -0.1217
     15 C15        -9.9211  -12.8902    0.0276 C.3       1 <0>        -0.1212
     16 C16        -9.9004  -14.4200    0.0191 C.3       1 <0>        -0.1178
     17 C17       -11.3358  -14.9496    0.0300 C.3       1 <0>        -0.1480
     18 C18       -11.3150  -16.4794    0.0216 C.3       1 <0>        -0.0139
     19 N1        -12.6932  -16.9879    0.0320 N.4       1 <0>        -0.5009
     20 C19       -12.6732  -18.4567    0.0239 C.3       1 <0>         0.0808
     21 C20       -12.0406  -18.9526    1.2912 C.2       1 <0>        -0.2010
     22 C21       -12.4920  -19.9469    1.9863 C.2       1 <0>        -0.0849
     23 C22       -13.7165  -20.7367    1.6272 C.3       1 <0>         0.0991
     24 C23       -14.0884  -20.4956    0.1625 C.3       1 <0>         0.0943
     25 C24       -14.1056  -18.9828   -0.0910 C.3       1 <0>         0.0982
     26 O1        -14.6095  -18.7214   -1.4024 O.3       1 <0>        -0.5577
     27 O2        -15.3824  -21.0417   -0.1007 O.3       1 <0>        -0.5545
     28 O3        -13.4585  -22.1278    1.8276 O.3       1 <0>        -0.5493
     29 C25       -11.7409  -20.3359    3.2335 C.3       1 <0>         0.0933
     30 O4        -10.6151  -19.4718    3.4005 O.3       1 <0>        -0.5734
     31 H1          1.0039    1.9031    0.0027 H         1 <0>         0.0541
     32 H2         -0.5459    1.8868   -0.8726 H         1 <0>         0.0535
     33 H3         -0.5289    1.8773    0.9072 H         1 <0>         0.0534
     34 H4          0.5123   -0.3556   -0.8948 H         1 <0>         0.0603
     35 H5          0.5293   -0.3651    0.8851 H         1 <0>         0.0603
     36 H6         -1.9435   -0.1821    0.9097 H         1 <0>         0.0606
     37 H7         -1.9605   -0.1726   -0.8702 H         1 <0>         0.0606
     38 H8         -0.9024   -2.4150   -0.8923 H         1 <0>         0.0606
     39 H9         -0.8854   -2.4246    0.8875 H         1 <0>         0.0605
     40 H10        -3.3581   -2.2415    0.9121 H         1 <0>         0.0605
     41 H11        -3.3751   -2.2320   -0.8677 H         1 <0>         0.0605
     42 H12        -2.3170   -4.4744   -0.8899 H         1 <0>         0.0605
     43 H13        -2.3000   -4.4840    0.8900 H         1 <0>         0.0605
     44 H14        -4.7728   -4.3010    0.9146 H         1 <0>         0.0604
     45 H15        -4.7898   -4.2914   -0.8653 H         1 <0>         0.0605
     46 H16        -3.7316   -6.5338   -0.8874 H         1 <0>         0.0605
     47 H17        -3.7146   -6.5434    0.8924 H         1 <0>         0.0605
     48 H18        -6.1874   -6.3604    0.9170 H         1 <0>         0.0605
     49 H19        -6.2044   -6.3508   -0.8628 H         1 <0>         0.0606
     50 H20        -5.1463   -8.5933   -0.8850 H         1 <0>         0.0607
     51 H21        -5.1293   -8.6028    0.8949 H         1 <0>         0.0606
     52 H22        -7.6020   -8.4198    0.9195 H         1 <0>         0.0607
     53 H23        -7.6190   -8.4102   -0.8604 H         1 <0>         0.0608
     54 H24        -6.5609  -10.6527   -0.8825 H         1 <0>         0.0613
     55 H25        -6.5439  -10.6622    0.8973 H         1 <0>         0.0611
     56 H26        -9.0167  -10.4792    0.9219 H         1 <0>         0.0615
     57 H27        -9.0337  -10.4697   -0.8579 H         1 <0>         0.0617
     58 H28        -7.9755  -12.7121   -0.8801 H         1 <0>         0.0635
     59 H29        -7.9586  -12.7217    0.8998 H         1 <0>         0.0633
     60 H30       -10.4313  -12.5386    0.9244 H         1 <0>         0.0656
     61 H31       -10.4483  -12.5291   -0.8555 H         1 <0>         0.0660
     62 H32        -9.3902  -14.7715   -0.8776 H         1 <0>         0.0741
     63 H33        -9.3732  -14.7811    0.9022 H         1 <0>         0.0740
     64 H34       -11.8459  -14.5981    0.9268 H         1 <0>         0.0871
     65 H35       -11.8629  -14.5885   -0.8531 H         1 <0>         0.0879
     66 H36       -10.8048  -16.8309   -0.8752 H         1 <0>         0.1334
     67 H37       -10.7878  -16.8405    0.9047 H         1 <0>         0.1351
     68 H38       -13.1654  -16.6625    0.8622 H         1 <0>         0.4262
     69 H39       -12.0907  -18.8055   -0.8288 H         1 <0>         0.1571
     70 H40       -11.1534  -18.4487    1.6451 H         1 <0>         0.1594
     71 H41       -14.5448  -20.4293    2.2655 H         1 <0>         0.0936
     72 H42       -13.3496  -20.9673   -0.4855 H         1 <0>         0.0877
     73 H43       -14.7363  -18.4937    0.6514 H         1 <0>         0.0901
     74 H44       -15.5150  -19.0295   -1.5445 H         1 <0>         0.4162
     75 H45       -15.4468  -21.9938    0.0555 H         1 <0>         0.4071
     76 H46       -13.2263  -22.3576    2.7377 H         1 <0>         0.3928
     77 H47       -12.3995  -20.2457    4.0973 H         1 <0>         0.0762
     78 H48       -11.3977  -21.3667    3.1443 H         1 <0>         0.0789
     79 H49       -10.0842  -19.6647    4.1855 H         1 <0>         0.4003
     80 H50       -13.1812  -16.6536   -0.7854 H         1 <0>         0.4364
@<TRIPOS>BOND
     1    1    2 1
     2    1   31 1
     3    1   32 1
     4    1   33 1
     5    2    3 1
     6    2   34 1
     7    2   35 1
     8    3    4 1
     9    3   36 1
    10    3   37 1
    11    4    5 1
    12    4   38 1
    13    4   39 1
    14    5    6 1
    15    5   40 1
    16    5   41 1
    17    6    7 1
    18    6   42 1
    19    6   43 1
    20    7    8 1
    21    7   44 1
    22    7   45 1
    23    8    9 1
    24    8   46 1
    25    8   47 1
    26    9   10 1
    27    9   48 1
    28    9   49 1
    29   10   11 1
    30   10   50 1
    31   10   51 1
    32   11   12 1
    33   11   52 1
    34   11   53 1
    35   12   13 1
    36   12   54 1
    37   12   55 1
    38   13   14 1
    39   13   56 1
    40   13   57 1
    41   14   15 1
    42   14   58 1
    43   14   59 1
    44   15   16 1
    45   15   60 1
    46   15   61 1
    47   16   17 1
    48   16   62 1
    49   16   63 1
    50   17   18 1
    51   17   64 1
    52   17   65 1
    53   18   19 1
    54   18   66 1
    55   18   67 1
    56   19   20 1
    57   19   68 1
    58   19   80 1
    59   20   25 1
    60   20   21 1
    61   20   69 1
    62   21   22 2
    63   21   70 1
    64   22   23 1
    65   22   29 1
    66   23   24 1
    67   23   28 1
    68   23   71 1
    69   24   25 1
    70   24   27 1
    71   24   72 1
    72   25   26 1
    73   25   73 1
    74   26   74 1
    75   27   75 1
    76   28   76 1
    77   29   30 1
    78   29   77 1
    79   29   78 1
    80   30   79 1
@<TRIPOS>MOLECULE
CHEMBL426933__13
   80    80     0     0     0
SMALL
USER_CHARGES

@<TRIPOS>ATOM
      1 C1         -0.0187    1.5258    0.0104 C.3       1 <0>        -0.1546
      2 C2          0.0021   -0.0041    0.0020 C.3       1 <0>        -0.1261
      3 C3         -1.4333   -0.5336    0.0129 C.3       1 <0>        -0.1213
      4 C4         -1.4126   -2.0635    0.0045 C.3       1 <0>        -0.1212
      5 C5         -2.8479   -2.5931    0.0153 C.3       1 <0>        -0.1207
      6 C6         -2.8272   -4.1229    0.0069 C.3       1 <0>        -0.1207
      7 C7         -4.2626   -4.6525    0.0178 C.3       1 <0>        -0.1207
      8 C8         -4.2418   -6.1823    0.0094 C.3       1 <0>        -0.1207
      9 C9         -5.6772   -6.7119    0.0202 C.3       1 <0>        -0.1207
     10 C10        -5.6565   -8.2417    0.0118 C.3       1 <0>        -0.1208
     11 C11        -7.0918   -8.7713    0.0227 C.3       1 <0>        -0.1209
     12 C12        -7.0711  -10.3012    0.0143 C.3       1 <0>        -0.1211
     13 C13        -8.5065  -10.8307    0.0251 C.3       1 <0>        -0.1212
     14 C14        -8.4857  -12.3606    0.0167 C.3       1 <0>        -0.1216
     15 C15        -9.9211  -12.8902    0.0276 C.3       1 <0>        -0.1212
     16 C16        -9.9004  -14.4200    0.0191 C.3       1 <0>        -0.1177
     17 C17       -11.3358  -14.9496    0.0300 C.3       1 <0>        -0.1477
     18 C18       -11.3150  -16.4794    0.0216 C.3       1 <0>        -0.0149
     19 N1        -12.6932  -16.9879    0.0320 N.4       1 <0>        -0.4978
     20 C19       -12.6732  -18.4567    0.0239 C.3       1 <0>         0.0830
     21 C20       -12.0406  -18.9526    1.2912 C.2       1 <0>        -0.2012
     22 C21       -12.4920  -19.9469    1.9863 C.2       1 <0>        -0.0769
     23 C22       -13.7170  -20.7361    1.6277 C.3       1 <0>         0.1045
     24 C23       -14.0890  -20.4953    0.1630 C.3       1 <0>         0.0919
     25 C24       -14.1056  -18.9828   -0.0910 C.3       1 <0>         0.0955
     26 O1        -14.9324  -18.3416    0.8823 O.3       1 <0>        -0.5666
     27 O2        -15.3835  -21.0407   -0.0997 O.3       1 <0>        -0.5549
     28 O3        -13.4599  -22.1273    1.8286 O.3       1 <0>        -0.5541
     29 C25       -11.7409  -20.3359    3.2335 C.3       1 <0>         0.0935
     30 O4        -10.6151  -19.4718    3.4005 O.3       1 <0>        -0.5732
     31 H1          1.0039    1.9031    0.0027 H         1 <0>         0.0541
     32 H2         -0.5459    1.8868   -0.8726 H         1 <0>         0.0535
     33 H3         -0.5289    1.8773    0.9072 H         1 <0>         0.0534
     34 H4          0.5123   -0.3556   -0.8948 H         1 <0>         0.0603
     35 H5          0.5293   -0.3651    0.8851 H         1 <0>         0.0603
     36 H6         -1.9435   -0.1821    0.9097 H         1 <0>         0.0606
     37 H7         -1.9605   -0.1726   -0.8702 H         1 <0>         0.0606
     38 H8         -0.9024   -2.4150   -0.8923 H         1 <0>         0.0606
     39 H9         -0.8854   -2.4246    0.8875 H         1 <0>         0.0606
     40 H10        -3.3581   -2.2415    0.9121 H         1 <0>         0.0605
     41 H11        -3.3751   -2.2320   -0.8677 H         1 <0>         0.0605
     42 H12        -2.3170   -4.4744   -0.8899 H         1 <0>         0.0605
     43 H13        -2.3000   -4.4840    0.8900 H         1 <0>         0.0605
     44 H14        -4.7728   -4.3010    0.9146 H         1 <0>         0.0605
     45 H15        -4.7898   -4.2914   -0.8653 H         1 <0>         0.0605
     46 H16        -3.7316   -6.5338   -0.8874 H         1 <0>         0.0605
     47 H17        -3.7146   -6.5434    0.8924 H         1 <0>         0.0605
     48 H18        -6.1874   -6.3604    0.9170 H         1 <0>         0.0605
     49 H19        -6.2044   -6.3508   -0.8628 H         1 <0>         0.0606
     50 H20        -5.1463   -8.5933   -0.8850 H         1 <0>         0.0607
     51 H21        -5.1293   -8.6028    0.8949 H         1 <0>         0.0606
     52 H22        -7.6020   -8.4198    0.9195 H         1 <0>         0.0608
     53 H23        -7.6190   -8.4102   -0.8604 H         1 <0>         0.0608
     54 H24        -6.5609  -10.6527   -0.8825 H         1 <0>         0.0612
     55 H25        -6.5439  -10.6622    0.8973 H         1 <0>         0.0612
     56 H26        -9.0167  -10.4792    0.9219 H         1 <0>         0.0616
     57 H27        -9.0337  -10.4697   -0.8579 H         1 <0>         0.0616
     58 H28        -7.9755  -12.7121   -0.8801 H         1 <0>         0.0633
     59 H29        -7.9586  -12.7217    0.8998 H         1 <0>         0.0633
     60 H30       -10.4313  -12.5386    0.9244 H         1 <0>         0.0658
     61 H31       -10.4483  -12.5291   -0.8555 H         1 <0>         0.0657
     62 H32        -9.3902  -14.7715   -0.8776 H         1 <0>         0.0737
     63 H33        -9.3732  -14.7811    0.9022 H         1 <0>         0.0740
     64 H34       -11.8459  -14.5981    0.9268 H         1 <0>         0.0874
     65 H35       -11.8629  -14.5885   -0.8531 H         1 <0>         0.0872
     66 H36       -10.8048  -16.8309   -0.8752 H         1 <0>         0.1322
     67 H37       -10.7878  -16.8405    0.9047 H         1 <0>         0.1348
     68 H38       -13.1654  -16.6625    0.8622 H         1 <0>         0.4360
     69 H39       -12.0907  -18.8055   -0.8288 H         1 <0>         0.1584
     70 H40       -11.1534  -18.4487    1.6451 H         1 <0>         0.1530
     71 H41       -14.5450  -20.4279    2.2661 H         1 <0>         0.0953
     72 H42       -13.3507  -20.9677   -0.4849 H         1 <0>         0.0870
     73 H43       -14.4900  -18.7834   -1.0913 H         1 <0>         0.1034
     74 H44       -15.8555  -18.6291    0.8649 H         1 <0>         0.4155
     75 H45       -15.4484  -21.9927    0.0568 H         1 <0>         0.4059
     76 H46       -13.2276  -22.3569    2.7388 H         1 <0>         0.3918
     77 H47       -12.3995  -20.2457    4.0973 H         1 <0>         0.0746
     78 H48       -11.3977  -21.3667    3.1443 H         1 <0>         0.0767
     79 H49       -10.0842  -19.6647    4.1855 H         1 <0>         0.3989
     80 H50       -13.1812  -16.6536   -0.7854 H         1 <0>         0.4287
@<TRIPOS>BOND
     1    1    2 1
     2    1   31 1
     3    1   32 1
     4    1   33 1
     5    2    3 1
     6    2   34 1
     7    2   35 1
     8    3    4 1
     9    3   36 1
    10    3   37 1
    11    4    5 1
    12    4   38 1
    13    4   39 1
    14    5    6 1
    15    5   40 1
    16    5   41 1
    17    6    7 1
    18    6   42 1
    19    6   43 1
    20    7    8 1
    21    7   44 1
    22    7   45 1
    23    8    9 1
    24    8   46 1
    25    8   47 1
    26    9   10 1
    27    9   48 1
    28    9   49 1
    29   10   11 1
    30   10   50 1
    31   10   51 1
    32   11   12 1
    33   11   52 1
    34   11   53 1
    35   12   13 1
    36   12   54 1
    37   12   55 1
    38   13   14 1
    39   13   56 1
    40   13   57 1
    41   14   15 1
    42   14   58 1
    43   14   59 1
    44   15   16 1
    45   15   60 1
    46   15   61 1
    47   16   17 1
    48   16   62 1
    49   16   63 1
    50   17   18 1
    51   17   64 1
    52   17   65 1
    53   18   19 1
    54   18   66 1
    55   18   67 1
    56   19   20 1
    57   19   68 1
    58   19   80 1
    59   20   25 1
    60   20   21 1
    61   20   69 1
    62   21   22 2
    63   21   70 1
    64   22   23 1
    65   22   29 1
    66   23   24 1
    67   23   28 1
    68   23   71 1
    69   24   25 1
    70   24   27 1
    71   24   72 1
    72   25   26 1
    73   25   73 1
    74   26   74 1
    75   27   75 1
    76   28   76 1
    77   29   30 1
    78   29   77 1
    79   29   78 1
    80   30   79 1
@<TRIPOS>MOLECULE
CHEMBL426933__14
   80    80     0     0     0
SMALL
USER_CHARGES

@<TRIPOS>ATOM
      1 C1         -0.0187    1.5258    0.0104 C.3       1 <0>        -0.1546
      2 C2          0.0021   -0.0041    0.0020 C.3       1 <0>        -0.1261
      3 C3         -1.4333   -0.5336    0.0129 C.3       1 <0>        -0.1213
      4 C4         -1.4126   -2.0635    0.0045 C.3       1 <0>        -0.1212
      5 C5         -2.8479   -2.5931    0.0153 C.3       1 <0>        -0.1207
      6 C6         -2.8272   -4.1229    0.0069 C.3       1 <0>        -0.1207
      7 C7         -4.2626   -4.6525    0.0178 C.3       1 <0>        -0.1207
      8 C8         -4.2418   -6.1823    0.0094 C.3       1 <0>        -0.1207
      9 C9         -5.6772   -6.7119    0.0202 C.3       1 <0>        -0.1207
     10 C10        -5.6565   -8.2417    0.0118 C.3       1 <0>        -0.1208
     11 C11        -7.0918   -8.7713    0.0227 C.3       1 <0>        -0.1208
     12 C12        -7.0711  -10.3012    0.0143 C.3       1 <0>        -0.1211
     13 C13        -8.5065  -10.8307    0.0251 C.3       1 <0>        -0.1210
     14 C14        -8.4857  -12.3606    0.0167 C.3       1 <0>        -0.1218
     15 C15        -9.9211  -12.8902    0.0276 C.3       1 <0>        -0.1209
     16 C16        -9.9004  -14.4200    0.0191 C.3       1 <0>        -0.1181
     17 C17       -11.3358  -14.9496    0.0300 C.3       1 <0>        -0.1476
     18 C18       -11.3150  -16.4794    0.0216 C.3       1 <0>        -0.0134
     19 N1        -12.6932  -16.9879    0.0320 N.4       1 <0>        -0.5038
     20 C19       -12.6732  -18.4567    0.0239 C.3       1 <0>         0.0840
     21 C20       -12.0406  -18.9526    1.2912 C.2       1 <0>        -0.1881
     22 C21       -12.4920  -19.9469    1.9863 C.2       1 <0>        -0.0892
     23 C22       -13.7170  -20.7361    1.6277 C.3       1 <0>         0.1004
     24 C23       -14.0890  -20.4953    0.1630 C.3       1 <0>         0.0929
     25 C24       -14.1056  -18.9828   -0.0910 C.3       1 <0>         0.0968
     26 O1        -14.6095  -18.7214   -1.4024 O.3       1 <0>        -0.5541
     27 O2        -13.1211  -21.1146   -0.6865 O.3       1 <0>        -0.5478
     28 O3        -13.4599  -22.1273    1.8286 O.3       1 <0>        -0.5493
     29 C25       -11.7409  -20.3359    3.2335 C.3       1 <0>         0.0943
     30 O4        -10.6151  -19.4718    3.4005 O.3       1 <0>        -0.5733
     31 H1          1.0039    1.9031    0.0027 H         1 <0>         0.0541
     32 H2         -0.5459    1.8868   -0.8726 H         1 <0>         0.0535
     33 H3         -0.5289    1.8773    0.9072 H         1 <0>         0.0534
     34 H4          0.5123   -0.3556   -0.8948 H         1 <0>         0.0603
     35 H5          0.5293   -0.3651    0.8851 H         1 <0>         0.0603
     36 H6         -1.9435   -0.1821    0.9097 H         1 <0>         0.0606
     37 H7         -1.9605   -0.1726   -0.8702 H         1 <0>         0.0606
     38 H8         -0.9024   -2.4150   -0.8923 H         1 <0>         0.0606
     39 H9         -0.8854   -2.4246    0.8875 H         1 <0>         0.0605
     40 H10        -3.3581   -2.2415    0.9121 H         1 <0>         0.0604
     41 H11        -3.3751   -2.2320   -0.8677 H         1 <0>         0.0605
     42 H12        -2.3170   -4.4744   -0.8899 H         1 <0>         0.0605
     43 H13        -2.3000   -4.4840    0.8900 H         1 <0>         0.0605
     44 H14        -4.7728   -4.3010    0.9146 H         1 <0>         0.0604
     45 H15        -4.7898   -4.2914   -0.8653 H         1 <0>         0.0605
     46 H16        -3.7316   -6.5338   -0.8874 H         1 <0>         0.0606
     47 H17        -3.7146   -6.5434    0.8924 H         1 <0>         0.0605
     48 H18        -6.1874   -6.3604    0.9170 H         1 <0>         0.0604
     49 H19        -6.2044   -6.3508   -0.8628 H         1 <0>         0.0606
     50 H20        -5.1463   -8.5933   -0.8850 H         1 <0>         0.0608
     51 H21        -5.1293   -8.6028    0.8949 H         1 <0>         0.0606
     52 H22        -7.6020   -8.4198    0.9195 H         1 <0>         0.0606
     53 H23        -7.6190   -8.4102   -0.8604 H         1 <0>         0.0608
     54 H24        -6.5609  -10.6527   -0.8825 H         1 <0>         0.0613
     55 H25        -6.5439  -10.6622    0.8973 H         1 <0>         0.0611
     56 H26        -9.0167  -10.4792    0.9219 H         1 <0>         0.0614
     57 H27        -9.0337  -10.4697   -0.8579 H         1 <0>         0.0617
     58 H28        -7.9755  -12.7121   -0.8801 H         1 <0>         0.0636
     59 H29        -7.9586  -12.7217    0.8998 H         1 <0>         0.0633
     60 H30       -10.4313  -12.5386    0.9244 H         1 <0>         0.0654
     61 H31       -10.4483  -12.5291   -0.8555 H         1 <0>         0.0658
     62 H32        -9.3902  -14.7715   -0.8776 H         1 <0>         0.0741
     63 H33        -9.3732  -14.7811    0.9022 H         1 <0>         0.0739
     64 H34       -11.8459  -14.5981    0.9268 H         1 <0>         0.0864
     65 H35       -11.8629  -14.5885   -0.8531 H         1 <0>         0.0873
     66 H36       -10.8048  -16.8309   -0.8752 H         1 <0>         0.1328
     67 H37       -10.7878  -16.8405    0.9047 H         1 <0>         0.1341
     68 H38       -13.1654  -16.6625    0.8622 H         1 <0>         0.4235
     69 H39       -12.0907  -18.8055   -0.8288 H         1 <0>         0.1619
     70 H40       -11.1534  -18.4487    1.6451 H         1 <0>         0.1554
     71 H41       -14.5450  -20.4279    2.2661 H         1 <0>         0.0904
     72 H42       -15.0764  -20.9113   -0.0374 H         1 <0>         0.0916
     73 H43       -14.7363  -18.4937    0.6514 H         1 <0>         0.0959
     74 H44       -15.5150  -19.0295   -1.5445 H         1 <0>         0.4079
     75 H45       -13.0467  -22.0712   -0.5661 H         1 <0>         0.4014
     76 H46       -13.2276  -22.3569    2.7388 H         1 <0>         0.3938
     77 H47       -12.3995  -20.2457    4.0973 H         1 <0>         0.0735
     78 H48       -11.3977  -21.3667    3.1443 H         1 <0>         0.0767
     79 H49       -10.0842  -19.6647    4.1855 H         1 <0>         0.3990
     80 H50       -13.1812  -16.6536   -0.7854 H         1 <0>         0.4348
@<TRIPOS>BOND
     1    1    2 1
     2    1   31 1
     3    1   32 1
     4    1   33 1
     5    2    3 1
     6    2   34 1
     7    2   35 1
     8    3    4 1
     9    3   36 1
    10    3   37 1
    11    4    5 1
    12    4   38 1
    13    4   39 1
    14    5    6 1
    15    5   40 1
    16    5   41 1
    17    6    7 1
    18    6   42 1
    19    6   43 1
    20    7    8 1
    21    7   44 1
    22    7   45 1
    23    8    9 1
    24    8   46 1
    25    8   47 1
    26    9   10 1
    27    9   48 1
    28    9   49 1
    29   10   11 1
    30   10   50 1
    31   10   51 1
    32   11   12 1
    33   11   52 1
    34   11   53 1
    35   12   13 1
    36   12   54 1
    37   12   55 1
    38   13   14 1
    39   13   56 1
    40   13   57 1
    41   14   15 1
    42   14   58 1
    43   14   59 1
    44   15   16 1
    45   15   60 1
    46   15   61 1
    47   16   17 1
    48   16   62 1
    49   16   63 1
    50   17   18 1
    51   17   64 1
    52   17   65 1
    53   18   19 1
    54   18   66 1
    55   18   67 1
    56   19   20 1
    57   19   68 1
    58   19   80 1
    59   20   25 1
    60   20   21 1
    61   20   69 1
    62   21   22 2
    63   21   70 1
    64   22   23 1
    65   22   29 1
    66   23   24 1
    67   23   28 1
    68   23   71 1
    69   24   25 1
    70   24   27 1
    71   24   72 1
    72   25   26 1
    73   25   73 1
    74   26   74 1
    75   27   75 1
    76   28   76 1
    77   29   30 1
    78   29   77 1
    79   29   78 1
    80   30   79 1
@<TRIPOS>MOLECULE
CHEMBL426933__15
   80    80     0     0     0
SMALL
USER_CHARGES

@<TRIPOS>ATOM
      1 C1         -0.0187    1.5258    0.0104 C.3       1 <0>        -0.1546
      2 C2          0.0021   -0.0041    0.0020 C.3       1 <0>        -0.1261
      3 C3         -1.4333   -0.5336    0.0129 C.3       1 <0>        -0.1213
      4 C4         -1.4126   -2.0635    0.0045 C.3       1 <0>        -0.1212
      5 C5         -2.8479   -2.5931    0.0153 C.3       1 <0>        -0.1207
      6 C6         -2.8272   -4.1229    0.0069 C.3       1 <0>        -0.1207
      7 C7         -4.2626   -4.6525    0.0178 C.3       1 <0>        -0.1207
      8 C8         -4.2418   -6.1823    0.0094 C.3       1 <0>        -0.1207
      9 C9         -5.6772   -6.7119    0.0202 C.3       1 <0>        -0.1207
     10 C10        -5.6565   -8.2417    0.0118 C.3       1 <0>        -0.1208
     11 C11        -7.0918   -8.7713    0.0227 C.3       1 <0>        -0.1208
     12 C12        -7.0711  -10.3012    0.0143 C.3       1 <0>        -0.1211
     13 C13        -8.5065  -10.8307    0.0251 C.3       1 <0>        -0.1210
     14 C14        -8.4857  -12.3606    0.0167 C.3       1 <0>        -0.1217
     15 C15        -9.9211  -12.8902    0.0276 C.3       1 <0>        -0.1210
     16 C16        -9.9004  -14.4200    0.0191 C.3       1 <0>        -0.1180
     17 C17       -11.3358  -14.9496    0.0300 C.3       1 <0>        -0.1473
     18 C18       -11.3150  -16.4794    0.0216 C.3       1 <0>        -0.0146
     19 N1        -12.6932  -16.9879    0.0320 N.4       1 <0>        -0.5007
     20 C19       -12.6732  -18.4567    0.0239 C.3       1 <0>         0.0872
     21 C20       -12.0406  -18.9526    1.2912 C.2       1 <0>        -0.1881
     22 C21       -12.4920  -19.9469    1.9863 C.2       1 <0>        -0.0813
     23 C22       -13.7170  -20.7361    1.6277 C.3       1 <0>         0.1053
     24 C23       -14.0890  -20.4953    0.1630 C.3       1 <0>         0.0922
     25 C24       -14.1056  -18.9828   -0.0910 C.3       1 <0>         0.0940
     26 O1        -14.9324  -18.3416    0.8823 O.3       1 <0>        -0.5620
     27 O2        -13.1211  -21.1146   -0.6865 O.3       1 <0>        -0.5543
     28 O3        -13.4599  -22.1273    1.8286 O.3       1 <0>        -0.5540
     29 C25       -11.7409  -20.3359    3.2335 C.3       1 <0>         0.0945
     30 O4        -10.6151  -19.4718    3.4005 O.3       1 <0>        -0.5731
     31 H1          1.0039    1.9031    0.0027 H         1 <0>         0.0541
     32 H2         -0.5459    1.8868   -0.8726 H         1 <0>         0.0535
     33 H3         -0.5289    1.8773    0.9072 H         1 <0>         0.0534
     34 H4          0.5123   -0.3556   -0.8948 H         1 <0>         0.0603
     35 H5          0.5293   -0.3651    0.8851 H         1 <0>         0.0603
     36 H6         -1.9435   -0.1821    0.9097 H         1 <0>         0.0606
     37 H7         -1.9605   -0.1726   -0.8702 H         1 <0>         0.0606
     38 H8         -0.9024   -2.4150   -0.8923 H         1 <0>         0.0606
     39 H9         -0.8854   -2.4246    0.8875 H         1 <0>         0.0606
     40 H10        -3.3581   -2.2415    0.9121 H         1 <0>         0.0605
     41 H11        -3.3751   -2.2320   -0.8677 H         1 <0>         0.0605
     42 H12        -2.3170   -4.4744   -0.8899 H         1 <0>         0.0605
     43 H13        -2.3000   -4.4840    0.8900 H         1 <0>         0.0605
     44 H14        -4.7728   -4.3010    0.9146 H         1 <0>         0.0604
     45 H15        -4.7898   -4.2914   -0.8653 H         1 <0>         0.0605
     46 H16        -3.7316   -6.5338   -0.8874 H         1 <0>         0.0605
     47 H17        -3.7146   -6.5434    0.8924 H         1 <0>         0.0605
     48 H18        -6.1874   -6.3604    0.9170 H         1 <0>         0.0605
     49 H19        -6.2044   -6.3508   -0.8628 H         1 <0>         0.0605
     50 H20        -5.1463   -8.5933   -0.8850 H         1 <0>         0.0607
     51 H21        -5.1293   -8.6028    0.8949 H         1 <0>         0.0606
     52 H22        -7.6020   -8.4198    0.9195 H         1 <0>         0.0607
     53 H23        -7.6190   -8.4102   -0.8604 H         1 <0>         0.0607
     54 H24        -6.5609  -10.6527   -0.8825 H         1 <0>         0.0612
     55 H25        -6.5439  -10.6622    0.8973 H         1 <0>         0.0612
     56 H26        -9.0167  -10.4792    0.9219 H         1 <0>         0.0615
     57 H27        -9.0337  -10.4697   -0.8579 H         1 <0>         0.0616
     58 H28        -7.9755  -12.7121   -0.8801 H         1 <0>         0.0634
     59 H29        -7.9586  -12.7217    0.8998 H         1 <0>         0.0633
     60 H30       -10.4313  -12.5386    0.9244 H         1 <0>         0.0656
     61 H31       -10.4483  -12.5291   -0.8555 H         1 <0>         0.0656
     62 H32        -9.3902  -14.7715   -0.8776 H         1 <0>         0.0737
     63 H33        -9.3732  -14.7811    0.9022 H         1 <0>         0.0738
     64 H34       -11.8459  -14.5981    0.9268 H         1 <0>         0.0867
     65 H35       -11.8629  -14.5885   -0.8531 H         1 <0>         0.0866
     66 H36       -10.8048  -16.8309   -0.8752 H         1 <0>         0.1317
     67 H37       -10.7878  -16.8405    0.9047 H         1 <0>         0.1339
     68 H38       -13.1654  -16.6625    0.8622 H         1 <0>         0.4334
     69 H39       -12.0907  -18.8055   -0.8288 H         1 <0>         0.1625
     70 H40       -11.1534  -18.4487    1.6451 H         1 <0>         0.1491
     71 H41       -14.5450  -20.4279    2.2661 H         1 <0>         0.0917
     72 H42       -15.0764  -20.9113   -0.0374 H         1 <0>         0.0907
     73 H43       -14.4900  -18.7834   -1.0913 H         1 <0>         0.1031
     74 H44       -15.8555  -18.6291    0.8649 H         1 <0>         0.4108
     75 H45       -13.0467  -22.0712   -0.5661 H         1 <0>         0.4062
     76 H46       -13.2276  -22.3569    2.7388 H         1 <0>         0.3930
     77 H47       -12.3995  -20.2457    4.0973 H         1 <0>         0.0718
     78 H48       -11.3977  -21.3667    3.1443 H         1 <0>         0.0745
     79 H49       -10.0842  -19.6647    4.1855 H         1 <0>         0.3977
     80 H50       -13.1812  -16.6536   -0.7854 H         1 <0>         0.4272
@<TRIPOS>BOND
     1    1    2 1
     2    1   31 1
     3    1   32 1
     4    1   33 1
     5    2    3 1
     6    2   34 1
     7    2   35 1
     8    3    4 1
     9    3   36 1
    10    3   37 1
    11    4    5 1
    12    4   38 1
    13    4   39 1
    14    5    6 1
    15    5   40 1
    16    5   41 1
    17    6    7 1
    18    6   42 1
    19    6   43 1
    20    7    8 1
    21    7   44 1
    22    7   45 1
    23    8    9 1
    24    8   46 1
    25    8   47 1
    26    9   10 1
    27    9   48 1
    28    9   49 1
    29   10   11 1
    30   10   50 1
    31   10   51 1
    32   11   12 1
    33   11   52 1
    34   11   53 1
    35   12   13 1
    36   12   54 1
    37   12   55 1
    38   13   14 1
    39   13   56 1
    40   13   57 1
    41   14   15 1
    42   14   58 1
    43   14   59 1
    44   15   16 1
    45   15   60 1
    46   15   61 1
    47   16   17 1
    48   16   62 1
    49   16   63 1
    50   17   18 1
    51   17   64 1
    52   17   65 1
    53   18   19 1
    54   18   66 1
    55   18   67 1
    56   19   20 1
    57   19   68 1
    58   19   80 1
    59   20   25 1
    60   20   21 1
    61   20   69 1
    62   21   22 2
    63   21   70 1
    64   22   23 1
    65   22   29 1
    66   23   24 1
    67   23   28 1
    68   23   71 1
    69   24   25 1
    70   24   27 1
    71   24   72 1
    72   25   26 1
    73   25   73 1
    74   26   74 1
    75   27   75 1
    76   28   76 1
    77   29   30 1
    78   29   77 1
    79   29   78 1
    80   30   79 1
@<TRIPOS>MOLECULE
CHEMBL264147
   37    39     0     0     0
SMALL
USER_CHARGES

@<TRIPOS>ATOM
      1 C1         -0.0163    1.3505    0.0095 C.2       1 <0>        -0.1265
      2 C2          1.1828    2.0390    0.0017 C.2       1 <0>        -0.2354
      3 C3          2.3465    1.3304   -0.0132 C.2       1 <0>         0.0963
      4 S1          1.7526   -0.3532   -0.0166 S.3       1 <0>         0.1409
      5 C4          0.0021   -0.0041    0.0020 C.2       1 <0>        -0.2449
      6 N1          3.6619    1.7992   -0.0239 N.am      1 <0>        -0.6305
      7 C5          4.6885    0.9260   -0.0383 C.2       1 <0>         0.5680
      8 O1          4.4692   -0.2703   -0.0419 O.2       1 <0>        -0.5257
      9 C6          6.0777    1.4212   -0.0496 C.ar      1 <0>        -0.2605
     10 C7          6.3315    2.7960   -0.0396 C.ar      1 <0>        -0.0385
     11 C8          7.6288    3.2548   -0.0503 C.ar      1 <0>        -0.1873
     12 C9          8.6880    2.3516   -0.0709 C.ar      1 <0>         0.3155
     13 C10         8.4387    0.9820   -0.0813 C.ar      1 <0>        -0.2771
     14 C11         7.1437    0.5167   -0.0645 C.ar      1 <0>         0.0119
     15 N2          9.9979    2.8184   -0.0816 N.2       1 <0>        -1.0768
     16 S2         11.2591    1.7456   -0.1062 S.o2      1 <0>         2.6059
     17 O2         11.2259    1.0513    1.1332 O.2       1 <0>        -1.0196
     18 O3         11.1972    1.0746   -1.3572 O.2       1 <0>        -1.0196
     19 C12        12.7465    2.6902   -0.1144 C.ar      1 <0>        -0.6152
     20 C13        13.3129    3.0766   -1.3148 C.ar      1 <0>        -0.0106
     21 C14        14.4796    3.8176   -1.3220 C.ar      1 <0>        -0.1363
     22 C15        15.0806    4.1726   -0.1275 C.ar      1 <0>         0.0035
     23 C16        14.5133    3.7856    1.0736 C.ar      1 <0>        -0.1363
     24 C17        13.3435    3.0494    1.0795 C.ar      1 <0>        -0.0106
     25 Cl1        16.5464    5.1028   -0.1356 Cl        1 <0>        -0.0723
     26 H1         -0.9545    1.8851    0.0258 H         1 <0>         0.1268
     27 H2          1.1967    3.1189    0.0070 H         1 <0>         0.1292
     28 H3         -0.8283   -0.6947    0.0068 H         1 <0>         0.1788
     29 H4          3.8368    2.7533   -0.0210 H         1 <0>         0.4179
     30 H5          5.5102    3.4972   -0.0240 H         1 <0>         0.1085
     31 H6          7.8255    4.3167   -0.0430 H         1 <0>         0.1220
     32 H7          9.2625    0.2838   -0.0977 H         1 <0>         0.1064
     33 H8          6.9510   -0.5460   -0.0673 H         1 <0>         0.1201
     34 H9         12.8438    2.7992   -2.2472 H         1 <0>         0.1473
     35 H10        14.9222    4.1191   -2.2598 H         1 <0>         0.1386
     36 H11        14.9822    4.0621    2.0064 H         1 <0>         0.1386
     37 H12        12.8980    2.7513    2.0171 H         1 <0>         0.1474
@<TRIPOS>BOND
     1    1    5 2
     2    1    2 1
     3    1   26 1
     4    2    3 2
     5    2   27 1
     6    3    4 1
     7    3    6 1
     8    4    5 1
     9    5   28 1
    10    6    7 am
    11    6   29 1
    12    7    8 2
    13    7    9 1
    14    9   14 ar
    15    9   10 ar
    16   10   11 ar
    17   10   30 1
    18   11   12 ar
    19   11   31 1
    20   12   13 ar
    21   12   15 1
    22   13   14 ar
    23   13   32 1
    24   14   33 1
    25   15   16 1
    26   16   17 2
    27   16   18 2
    28   16   19 1
    29   19   24 ar
    30   19   20 ar
    31   20   21 ar
    32   20   34 1
    33   21   22 ar
    34   21   35 1
    35   22   23 ar
    36   22   25 1
    37   23   24 ar
    38   23   36 1
    39   24   37 1
@<TRIPOS>MOLECULE
CHEMBL264147__1
   38    40     0     0     0
SMALL
USER_CHARGES

@<TRIPOS>ATOM
      1 C1          0.0122    1.1906   -0.2602 C.2       1 <0>        -0.1350
      2 C2          1.2001    1.8983   -0.2572 C.2       1 <0>        -0.2077
      3 C3          2.3744    1.2094   -0.2038 C.2       1 <0>         0.0650
      4 S1          1.8071   -0.4827   -0.1558 S.3       1 <0>         0.1469
      5 C4          0.0517   -0.1626   -0.2099 C.2       1 <0>        -0.2207
      6 N1          3.6821    1.6995   -0.1907 N.am      1 <0>        -0.6212
      7 C5          4.7219    0.8438   -0.1343 C.2       1 <0>         0.5550
      8 O1          4.5214   -0.3551   -0.0947 O.2       1 <0>        -0.4974
      9 C6          6.1029    1.3615   -0.1205 C.ar      1 <0>        -0.1446
     10 C7          6.3349    2.7396   -0.1601 C.ar      1 <0>        -0.0649
     11 C8          7.6246    3.2193   -0.1471 C.ar      1 <0>        -0.1342
     12 C9          8.6977    2.3340   -0.0946 C.ar      1 <0>         0.1752
     13 C10         8.4701    0.9611   -0.0555 C.ar      1 <0>        -0.1604
     14 C11         7.1826    0.4752   -0.0620 C.ar      1 <0>        -0.0263
     15 N2          9.9999    2.8220   -0.0816 N.pl3     1 <0>        -1.0554
     16 S2         11.0998    2.2179    0.9988 S.o2      1 <0>         2.6904
     17 O2         11.0765    0.8044    0.8547 O.2       1 <0>        -0.9394
     18 O3         12.2880    2.9805    0.8381 O.2       1 <0>        -0.9406
     19 C12        10.4905    2.5695    2.6143 C.ar      1 <0>        -0.6787
     20 C13        10.7406    3.7990    3.1946 C.ar      1 <0>        -0.0036
     21 C14        10.2628    4.0754    4.4618 C.ar      1 <0>        -0.1315
     22 C15         9.5342    3.1213    5.1494 C.ar      1 <0>         0.0218
     23 C16         9.2842    1.8910    4.5681 C.ar      1 <0>        -0.1300
     24 C17         9.7576    1.6178    3.2986 C.ar      1 <0>        -0.0022
     25 Cl1         8.9343    3.4675    6.7412 Cl        1 <0>        -0.0485
     26 H1         -0.9342    1.7096   -0.2975 H         1 <0>         0.1337
     27 H2          1.1971    2.9776   -0.2970 H         1 <0>         0.1322
     28 H3         -0.7675   -0.8663   -0.2035 H         1 <0>         0.1851
     29 H4          3.8420    2.6557   -0.2222 H         1 <0>         0.4182
     30 H5          5.5029    3.4269   -0.2012 H         1 <0>         0.1325
     31 H6          7.8045    4.2838   -0.1781 H         1 <0>         0.1400
     32 H7          9.3047    0.2769   -0.0152 H         1 <0>         0.1673
     33 H8          7.0066   -0.5897   -0.0264 H         1 <0>         0.1494
     34 H9         10.2638    3.5163   -0.7055 H         1 <0>         0.4323
     35 H10        11.3097    4.5436    2.6579 H         1 <0>         0.1502
     36 H11        10.4586    5.0359    4.9152 H         1 <0>         0.1470
     37 H12         8.7157    1.1457    5.1045 H         1 <0>         0.1473
     38 H13         9.5585    0.6591    2.8428 H         1 <0>         0.1529
@<TRIPOS>BOND
     1    1    5 2
     2    1    2 1
     3    1   26 1
     4    2    3 2
     5    2   27 1
     6    3    4 1
     7    3    6 1
     8    4    5 1
     9    5   28 1
    10    6    7 am
    11    6   29 1
    12    7    8 2
    13    7    9 1
    14    9   14 ar
    15    9   10 ar
    16   10   11 ar
    17   10   30 1
    18   11   12 ar
    19   11   31 1
    20   12   13 ar
    21   12   15 1
    22   13   14 ar
    23   13   32 1
    24   14   33 1
    25   15   16 1
    26   15   34 1
    27   16   17 2
    28   16   18 2
    29   16   19 1
    30   19   24 ar
    31   19   20 ar
    32   20   21 ar
    33   20   35 1
    34   21   22 ar
    35   21   36 1
    36   22   23 ar
    37   22   25 1
    38   23   24 ar
    39   23   37 1
    40   24   38 1
@<TRIPOS>MOLECULE
CHEMBL117074
   57    57     0     0     0
SMALL
USER_CHARGES

@<TRIPOS>ATOM
      1 C1         -0.0187    1.5258    0.0104 C.3       1 <0>        -0.1555
      2 C2          0.0021   -0.0041    0.0020 C.3       1 <0>        -0.1263
      3 C3         -1.4333   -0.5336    0.0129 C.3       1 <0>        -0.1217
      4 C4         -1.4126   -2.0635    0.0045 C.3       1 <0>        -0.1217
      5 C5         -2.8479   -2.5931    0.0153 C.3       1 <0>        -0.1214
      6 C6         -2.8272   -4.1229    0.0069 C.3       1 <0>        -0.1217
      7 C7         -4.2626   -4.6525    0.0178 C.3       1 <0>        -0.1214
      8 C8         -4.2418   -6.1823    0.0094 C.3       1 <0>        -0.1180
      9 C9         -5.6772   -6.7119    0.0202 C.3       1 <0>        -0.1479
     10 C10        -5.6565   -8.2417    0.0118 C.3       1 <0>        -0.0153
     11 N1         -7.0346   -8.7502    0.0222 N.4       1 <0>        -0.5026
     12 C11        -7.0147  -10.2190    0.0142 C.3       1 <0>         0.0359
     13 C12        -8.4434  -10.7492    0.1507 C.3       1 <0>        -0.1371
     14 C13        -8.4226  -12.2791    0.1423 C.3       1 <0>        -0.0756
     15 C14        -7.8187  -12.7737   -1.1736 C.3       1 <0>         0.0771
     16 C15        -6.3900  -12.2435   -1.3101 C.3       1 <0>         0.0441
     17 C16        -6.4107  -10.7137   -1.3017 C.3       1 <0>         0.0992
     18 O1         -7.2004  -10.2420   -2.3953 O.3       1 <0>        -0.5642
     19 O2         -5.8259  -12.7055   -2.5391 O.3       1 <0>        -0.5592
     20 O3         -7.7993  -14.2025   -1.1814 O.3       1 <0>        -0.5524
     21 C17        -9.8513  -12.8092    0.2788 C.3       1 <0>        -0.1478
     22 H1          1.0039    1.9031    0.0027 H         1 <0>         0.0555
     23 H2         -0.5459    1.8868   -0.8726 H         1 <0>         0.0539
     24 H3         -0.5289    1.8773    0.9072 H         1 <0>         0.0539
     25 H4          0.5123   -0.3556   -0.8948 H         1 <0>         0.0607
     26 H5          0.5293   -0.3651    0.8851 H         1 <0>         0.0607
     27 H6         -1.9435   -0.1821    0.9097 H         1 <0>         0.0611
     28 H7         -1.9605   -0.1726   -0.8702 H         1 <0>         0.0611
     29 H8         -0.9024   -2.4150   -0.8923 H         1 <0>         0.0614
     30 H9         -0.8854   -2.4246    0.8875 H         1 <0>         0.0614
     31 H10        -3.3581   -2.2415    0.9121 H         1 <0>         0.0619
     32 H11        -3.3751   -2.2320   -0.8677 H         1 <0>         0.0619
     33 H12        -2.3170   -4.4744   -0.8899 H         1 <0>         0.0634
     34 H13        -2.3000   -4.4840    0.8900 H         1 <0>         0.0634
     35 H14        -4.7728   -4.3010    0.9146 H         1 <0>         0.0661
     36 H15        -4.7898   -4.2914   -0.8653 H         1 <0>         0.0661
     37 H16        -3.7316   -6.5338   -0.8874 H         1 <0>         0.0734
     38 H17        -3.7146   -6.5434    0.8924 H         1 <0>         0.0738
     39 H18        -6.1874   -6.3604    0.9170 H         1 <0>         0.0880
     40 H19        -6.2044   -6.3508   -0.8628 H         1 <0>         0.0882
     41 H20        -5.1463   -8.5933   -0.8850 H         1 <0>         0.1306
     42 H21        -5.1293   -8.6028    0.8949 H         1 <0>         0.1325
     43 H22        -7.5069   -8.4248    0.8524 H         1 <0>         0.4305
     44 H23        -6.4124  -10.5788    0.8483 H         1 <0>         0.1525
     45 H24        -8.8737  -10.3968    1.0881 H         1 <0>         0.0996
     46 H25        -9.0457  -10.3894   -0.6835 H         1 <0>         0.1025
     47 H26        -7.8203  -12.6389    0.9764 H         1 <0>         0.0891
     48 H27        -8.4210  -12.4139   -2.0078 H         1 <0>         0.0790
     49 H28        -5.7877  -12.6033   -0.4759 H         1 <0>         0.0817
     50 H29        -5.3929  -10.3360   -1.3990 H         1 <0>         0.0899
     51 H30        -6.8752  -10.5182   -3.2631 H         1 <0>         0.4138
     52 H31        -5.7812  -13.6686   -2.6139 H         1 <0>         0.3969
     53 H32        -7.4283  -14.5864   -1.9877 H         1 <0>         0.3835
     54 H33       -10.4537  -12.4495   -0.5554 H         1 <0>         0.0603
     55 H34        -9.8366  -13.8991    0.2728 H         1 <0>         0.0763
     56 H35       -10.2816  -12.4569    1.2162 H         1 <0>         0.0634
     57 H36        -7.5226   -8.4160   -0.7952 H         1 <0>         0.4354
@<TRIPOS>BOND
     1    1    2 1
     2    1   22 1
     3    1   23 1
     4    1   24 1
     5    2    3 1
     6    2   25 1
     7    2   26 1
     8    3    4 1
     9    3   27 1
    10    3   28 1
    11    4    5 1
    12    4   29 1
    13    4   30 1
    14    5    6 1
    15    5   31 1
    16    5   32 1
    17    6    7 1
    18    6   33 1
    19    6   34 1
    20    7    8 1
    21    7   35 1
    22    7   36 1
    23    8    9 1
    24    8   37 1
    25    8   38 1
    26    9   10 1
    27    9   39 1
    28    9   40 1
    29   10   11 1
    30   10   41 1
    31   10   42 1
    32   11   12 1
    33   11   43 1
    34   11   57 1
    35   12   17 1
    36   12   13 1
    37   12   44 1
    38   13   14 1
    39   13   45 1
    40   13   46 1
    41   14   15 1
    42   14   21 1
    43   14   47 1
    44   15   16 1
    45   15   20 1
    46   15   48 1
    47   16   17 1
    48   16   19 1
    49   16   49 1
    50   17   18 1
    51   17   50 1
    52   18   51 1
    53   19   52 1
    54   20   53 1
    55   21   54 1
    56   21   55 1
    57   21   56 1
@<TRIPOS>MOLECULE
CHEMBL345129
   24    24     0     0     0
SMALL
USER_CHARGES

@<TRIPOS>ATOM
      1 C1         -0.0178    1.4636    0.0101 C.3       1 <0>        -0.0036
      2 C2          1.4163    1.9970   -0.0007 C.3       1 <0>        -0.0970
      3 C3          2.1538    1.4881    1.2412 C.3       1 <0>         0.1034
      4 C4          2.1040   -0.0424    1.2610 C.3       1 <0>         0.0597
      5 C5          0.6443   -0.5002    1.2251 C.3       1 <0>        -0.0437
      6 N1          0.0021   -0.0041    0.0020 N.4       1 <0>        -0.4981
      7 O1          2.7261   -0.5247    2.4536 O.3       1 <0>        -0.5388
      8 O2          1.5227    2.0020    2.4158 O.3       1 <0>        -0.5567
      9 C6          1.3926    3.5268    0.0102 C.3       1 <0>         0.0851
     10 O3          0.8035    4.0027   -1.2016 O.3       1 <0>        -0.5804
     11 H1         -0.5288    1.8147    0.9066 H         1 <0>         0.1397
     12 H2         -0.5458    1.8242   -0.8727 H         1 <0>         0.1451
     13 H3          1.9282    1.6467   -0.8971 H         1 <0>         0.1156
     14 H4          3.1920    1.8186    1.2095 H         1 <0>         0.0950
     15 H5          2.6301   -0.4350    0.3909 H         1 <0>         0.0893
     16 H6          0.6052   -1.5894    1.2393 H         1 <0>         0.1355
     17 H7          0.1192   -0.1073    2.0957 H         1 <0>         0.1436
     18 H8         -0.9439   -0.3520   -0.0448 H         1 <0>         0.4372
     19 H9          2.7306   -1.4884    2.5328 H         1 <0>         0.4004
     20 H10         1.9389    1.7192    3.2416 H         1 <0>         0.4032
     21 H11         0.8062    3.8749    0.8605 H         1 <0>         0.0700
     22 H12         2.4114    3.9054    0.0921 H         1 <0>         0.0675
     23 H13         0.7556    4.9665   -1.2635 H         1 <0>         0.4004
     24 H14         0.5177   -0.3280   -0.8025 H         1 <0>         0.4276
@<TRIPOS>BOND
     1    1    6 1
     2    1    2 1
     3    1   11 1
     4    1   12 1
     5    2    3 1
     6    2    9 1
     7    2   13 1
     8    3    4 1
     9    3    8 1
    10    3   14 1
    11    4    5 1
    12    4    7 1
    13    4   15 1
    14    5    6 1
    15    5   16 1
    16    5   17 1
    17    6   18 1
    18    6   24 1
    19    7   19 1
    20    8   20 1
    21    9   10 1
    22    9   21 1
    23    9   22 1
    24   10   23 1
@<TRIPOS>MOLECULE
CHEMBL345129__1
   24    24     0     0     0
SMALL
USER_CHARGES

@<TRIPOS>ATOM
      1 C1         -0.0178    1.4636    0.0101 C.3       1 <0>        -0.0014
      2 C2          1.4163    1.9970   -0.0007 C.3       1 <0>        -0.0937
      3 C3          2.1538    1.4881    1.2412 C.3       1 <0>         0.1043
      4 C4          2.1040   -0.0424    1.2610 C.3       1 <0>         0.0547
      5 C5          0.6443   -0.5002    1.2251 C.3       1 <0>        -0.0413
      6 N1          0.0021   -0.0041    0.0020 N.4       1 <0>        -0.4999
      7 O1          2.7937   -0.5571    0.1202 O.3       1 <0>        -0.5533
      8 O2          1.5227    2.0020    2.4158 O.3       1 <0>        -0.5525
      9 C6          1.3926    3.5268    0.0102 C.3       1 <0>         0.0831
     10 O3          0.8035    4.0027   -1.2016 O.3       1 <0>        -0.5800
     11 H1         -0.5288    1.8147    0.9066 H         1 <0>         0.1367
     12 H2         -0.5458    1.8242   -0.8727 H         1 <0>         0.1421
     13 H3          1.9282    1.6467   -0.8971 H         1 <0>         0.1202
     14 H4          3.1920    1.8186    1.2095 H         1 <0>         0.0978
     15 H5          2.5785   -0.4103    2.1707 H         1 <0>         0.1086
     16 H6          0.6052   -1.5894    1.2393 H         1 <0>         0.1368
     17 H7          0.1192   -0.1073    2.0957 H         1 <0>         0.1454
     18 H8         -0.9439   -0.3520   -0.0448 H         1 <0>         0.4337
     19 H9          2.8020   -1.5227    0.0682 H         1 <0>         0.3987
     20 H10         1.9389    1.7192    3.2416 H         1 <0>         0.3981
     21 H11         0.8062    3.8749    0.8605 H         1 <0>         0.0673
     22 H12         2.4114    3.9054    0.0921 H         1 <0>         0.0656
     23 H13         0.7556    4.9665   -1.2635 H         1 <0>         0.3988
     24 H14         0.5177   -0.3280   -0.8025 H         1 <0>         0.4301
@<TRIPOS>BOND
     1    1    6 1
     2    1    2 1
     3    1   11 1
     4    1   12 1
     5    2    3 1
     6    2    9 1
     7    2   13 1
     8    3    4 1
     9    3    8 1
    10    3   14 1
    11    4    5 1
    12    4    7 1
    13    4   15 1
    14    5    6 1
    15    5   16 1
    16    5   17 1
    17    6   18 1
    18    6   24 1
    19    7   19 1
    20    8   20 1
    21    9   10 1
    22    9   21 1
    23    9   22 1
    24   10   23 1
@<TRIPOS>MOLECULE
CHEMBL345129__2
   24    24     0     0     0
SMALL
USER_CHARGES

@<TRIPOS>ATOM
      1 C1         -0.0178    1.4636    0.0101 C.3       1 <0>        -0.0027
      2 C2          1.4163    1.9970   -0.0007 C.3       1 <0>        -0.1026
      3 C3          2.1538    1.4881    1.2412 C.3       1 <0>         0.1087
      4 C4          2.1040   -0.0424    1.2610 C.3       1 <0>         0.0566
      5 C5          0.6443   -0.5002    1.2251 C.3       1 <0>        -0.0453
      6 N1          0.0021   -0.0041    0.0020 N.4       1 <0>        -0.5001
      7 O1          2.7261   -0.5247    2.4536 O.3       1 <0>        -0.5386
      8 O2          3.5149    1.9213    1.1997 O.3       1 <0>        -0.5460
      9 C6          1.3926    3.5268    0.0102 C.3       1 <0>         0.0845
     10 O3          0.8035    4.0027   -1.2016 O.3       1 <0>        -0.5790
     11 H1         -0.5288    1.8147    0.9066 H         1 <0>         0.1354
     12 H2         -0.5458    1.8242   -0.8727 H         1 <0>         0.1519
     13 H3          1.9282    1.6467   -0.8971 H         1 <0>         0.1131
     14 H4          1.6725    1.8801    2.1371 H         1 <0>         0.0828
     15 H5          2.6301   -0.4350    0.3909 H         1 <0>         0.0905
     16 H6          0.6052   -1.5894    1.2393 H         1 <0>         0.1399
     17 H7          0.1192   -0.1073    2.0957 H         1 <0>         0.1410
     18 H8         -0.9439   -0.3520   -0.0448 H         1 <0>         0.4384
     19 H9          2.7306   -1.4884    2.5328 H         1 <0>         0.4002
     20 H10         4.0424    1.6341    1.9575 H         1 <0>         0.4025
     21 H11         0.8062    3.8749    0.8605 H         1 <0>         0.0585
     22 H12         2.4114    3.9054    0.0921 H         1 <0>         0.0787
     23 H13         0.7556    4.9665   -1.2635 H         1 <0>         0.4004
     24 H14         0.5177   -0.3280   -0.8025 H         1 <0>         0.4313
@<TRIPOS>BOND
     1    1    6 1
     2    1    2 1
     3    1   11 1
     4    1   12 1
     5    2    3 1
     6    2    9 1
     7    2   13 1
     8    3    4 1
     9    3    8 1
    10    3   14 1
    11    4    5 1
    12    4    7 1
    13    4   15 1
    14    5    6 1
    15    5   16 1
    16    5   17 1
    17    6   18 1
    18    6   24 1
    19    7   19 1
    20    8   20 1
    21    9   10 1
    22    9   21 1
    23    9   22 1
    24   10   23 1
@<TRIPOS>MOLECULE
CHEMBL345129__3
   24    24     0     0     0
SMALL
USER_CHARGES

@<TRIPOS>ATOM
      1 C1         -0.0178    1.4636    0.0101 C.3       1 <0>        -0.0001
      2 C2          1.4163    1.9970   -0.0007 C.3       1 <0>        -0.1026
      3 C3          2.1538    1.4881    1.2412 C.3       1 <0>         0.1112
      4 C4          2.1040   -0.0424    1.2610 C.3       1 <0>         0.0495
      5 C5          0.6443   -0.5002    1.2251 C.3       1 <0>        -0.0431
      6 N1          0.0021   -0.0041    0.0020 N.4       1 <0>        -0.5019
      7 O1          2.7937   -0.5571    0.1202 O.3       1 <0>        -0.5453
      8 O2          3.5149    1.9213    1.1997 O.3       1 <0>        -0.5383
      9 C6          1.3926    3.5268    0.0102 C.3       1 <0>         0.0827
     10 O3          0.8035    4.0027   -1.2016 O.3       1 <0>        -0.5787
     11 H1         -0.5288    1.8147    0.9066 H         1 <0>         0.1322
     12 H2         -0.5458    1.8242   -0.8727 H         1 <0>         0.1484
     13 H3          1.9282    1.6467   -0.8971 H         1 <0>         0.1180
     14 H4          1.6725    1.8801    2.1371 H         1 <0>         0.0891
     15 H5          2.5785   -0.4103    2.1707 H         1 <0>         0.1087
     16 H6          0.6052   -1.5894    1.2393 H         1 <0>         0.1406
     17 H7          0.1192   -0.1073    2.0957 H         1 <0>         0.1428
     18 H8         -0.9439   -0.3520   -0.0448 H         1 <0>         0.4348
     19 H9          2.8020   -1.5227    0.0682 H         1 <0>         0.3930
     20 H10         4.0424    1.6341    1.9575 H         1 <0>         0.3945
     21 H11         0.8062    3.8749    0.8605 H         1 <0>         0.0556
     22 H12         2.4114    3.9054    0.0921 H         1 <0>         0.0766
     23 H13         0.7556    4.9665   -1.2635 H         1 <0>         0.3987
     24 H14         0.5177   -0.3280   -0.8025 H         1 <0>         0.4335
@<TRIPOS>BOND
     1    1    6 1
     2    1    2 1
     3    1   11 1
     4    1   12 1
     5    2    3 1
     6    2    9 1
     7    2   13 1
     8    3    4 1
     9    3    8 1
    10    3   14 1
    11    4    5 1
    12    4    7 1
    13    4   15 1
    14    5    6 1
    15    5   16 1
    16    5   17 1
    17    6   18 1
    18    6   24 1
    19    7   19 1
    20    8   20 1
    21    9   10 1
    22    9   21 1
    23    9   22 1
    24   10   23 1
@<TRIPOS>MOLECULE
CHEMBL345129__4
   24    24     0     0     0
SMALL
USER_CHARGES

@<TRIPOS>ATOM
      1 C1         -0.0178    1.4636    0.0101 C.3       1 <0>        -0.0001
      2 C2          1.4163    1.9970   -0.0007 C.3       1 <0>        -0.1025
      3 C3          2.1299    1.5015   -1.2619 C.3       1 <0>         0.1111
      4 C4          2.0795   -0.0286   -1.2972 C.3       1 <0>         0.0495
      5 C5          0.6208   -0.4870   -1.2383 C.3       1 <0>        -0.0431
      6 N1          0.0021   -0.0041    0.0020 N.4       1 <0>        -0.5019
      7 O1          2.7909   -0.5555   -0.1754 O.3       1 <0>        -0.5453
      8 O2          3.4916    1.9345   -1.2418 O.3       1 <0>        -0.5383
      9 C6          1.3925    3.5268    0.0052 C.3       1 <0>         0.0827
     10 O3          0.8267    3.9897    1.2330 O.3       1 <0>        -0.5787
     11 H1         -0.5288    1.8147    0.9066 H         1 <0>         0.1484
     12 H2         -0.5458    1.8242   -0.8727 H         1 <0>         0.1322
     13 H3          1.9452    1.6372    0.8818 H         1 <0>         0.1180
     14 H4          1.6316    1.9031   -2.1442 H         1 <0>         0.0891
     15 H5          2.5366   -0.3867   -2.2197 H         1 <0>         0.1087
     16 H6          0.0792   -0.0848   -2.0945 H         1 <0>         0.1428
     17 H7          0.5813   -1.5760   -1.2635 H         1 <0>         0.1406
     18 H8          0.5329   -0.3366    0.7931 H         1 <0>         0.4336
     19 H9          2.8001   -1.5216   -0.1339 H         1 <0>         0.3930
     20 H10         4.0045    1.6554   -2.0126 H         1 <0>         0.3945
     21 H11         2.4097    3.9064   -0.0921 H         1 <0>         0.0766
     22 H12         0.7900    3.8840   -0.8300 H         1 <0>         0.0556
     23 H13         0.7801    4.9527    1.3062 H         1 <0>         0.3987
     24 H14        -0.9428   -0.3526    0.0632 H         1 <0>         0.4348
@<TRIPOS>BOND
     1    1    6 1
     2    1    2 1
     3    1   11 1
     4    1   12 1
     5    2    3 1
     6    2    9 1
     7    2   13 1
     8    3    4 1
     9    3    8 1
    10    3   14 1
    11    4    5 1
    12    4    7 1
    13    4   15 1
    14    5    6 1
    15    5   16 1
    16    5   17 1
    17    6   18 1
    18    6   24 1
    19    7   19 1
    20    8   20 1
    21    9   10 1
    22    9   21 1
    23    9   22 1
    24   10   23 1
@<TRIPOS>MOLECULE
CHEMBL345129__5
   24    24     0     0     0
SMALL
USER_CHARGES

@<TRIPOS>ATOM
      1 C1         -0.0178    1.4636    0.0101 C.3       1 <0>        -0.0027
      2 C2          1.4163    1.9970   -0.0007 C.3       1 <0>        -0.1025
      3 C3          2.1299    1.5015   -1.2619 C.3       1 <0>         0.1087
      4 C4          2.0795   -0.0286   -1.2972 C.3       1 <0>         0.0565
      5 C5          0.6208   -0.4870   -1.2383 C.3       1 <0>        -0.0453
      6 N1          0.0021   -0.0041    0.0020 N.4       1 <0>        -0.5001
      7 O1          2.6788   -0.4980   -2.5066 O.3       1 <0>        -0.5386
      8 O2          3.4916    1.9345   -1.2418 O.3       1 <0>        -0.5460
      9 C6          1.3925    3.5268    0.0052 C.3       1 <0>         0.0845
     10 O3          0.8267    3.9897    1.2330 O.3       1 <0>        -0.5790
     11 H1         -0.5288    1.8147    0.9066 H         1 <0>         0.1519
     12 H2         -0.5458    1.8242   -0.8727 H         1 <0>         0.1354
     13 H3          1.9452    1.6372    0.8818 H         1 <0>         0.1131
     14 H4          1.6316    1.9031   -2.1442 H         1 <0>         0.0828
     15 H5          2.6221   -0.4305   -0.4415 H         1 <0>         0.0905
     16 H6          0.0792   -0.0848   -2.0945 H         1 <0>         0.1410
     17 H7          0.5813   -1.5760   -1.2635 H         1 <0>         0.1399
     18 H8          0.5329   -0.3366    0.7931 H         1 <0>         0.4313
     19 H9          2.6816   -1.4609   -2.5962 H         1 <0>         0.4002
     20 H10         4.0045    1.6554   -2.0126 H         1 <0>         0.4025
     21 H11         2.4097    3.9064   -0.0921 H         1 <0>         0.0787
     22 H12         0.7900    3.8840   -0.8300 H         1 <0>         0.0585
     23 H13         0.7801    4.9527    1.3062 H         1 <0>         0.4004
     24 H14        -0.9428   -0.3526    0.0632 H         1 <0>         0.4384
@<TRIPOS>BOND
     1    1    6 1
     2    1    2 1
     3    1   11 1
     4    1   12 1
     5    2    3 1
     6    2    9 1
     7    2   13 1
     8    3    4 1
     9    3    8 1
    10    3   14 1
    11    4    5 1
    12    4    7 1
    13    4   15 1
    14    5    6 1
    15    5   16 1
    16    5   17 1
    17    6   18 1
    18    6   24 1
    19    7   19 1
    20    8   20 1
    21    9   10 1
    22    9   21 1
    23    9   22 1
    24   10   23 1
@<TRIPOS>MOLECULE
CHEMBL345129__6
   24    24     0     0     0
SMALL
USER_CHARGES

@<TRIPOS>ATOM
      1 C1         -0.0178    1.4636    0.0101 C.3       1 <0>        -0.0014
      2 C2          1.4163    1.9970   -0.0007 C.3       1 <0>        -0.0937
      3 C3          2.1299    1.5015   -1.2619 C.3       1 <0>         0.1043
      4 C4          2.0795   -0.0286   -1.2972 C.3       1 <0>         0.0547
      5 C5          0.6208   -0.4870   -1.2383 C.3       1 <0>        -0.0413
      6 N1          0.0021   -0.0041    0.0020 N.4       1 <0>        -0.4999
      7 O1          2.7909   -0.5555   -0.1754 O.3       1 <0>        -0.5534
      8 O2          1.4766    2.0280   -2.4186 O.3       1 <0>        -0.5525
      9 C6          1.3925    3.5268    0.0052 C.3       1 <0>         0.0831
     10 O3          0.8267    3.9897    1.2330 O.3       1 <0>        -0.5800
     11 H1         -0.5288    1.8147    0.9066 H         1 <0>         0.1421
     12 H2         -0.5458    1.8242   -0.8727 H         1 <0>         0.1367
     13 H3          1.9452    1.6372    0.8818 H         1 <0>         0.1202
     14 H4          3.1686    1.8318   -1.2465 H         1 <0>         0.0978
     15 H5          2.5366   -0.3867   -2.2197 H         1 <0>         0.1086
     16 H6          0.0792   -0.0848   -2.0945 H         1 <0>         0.1454
     17 H7          0.5813   -1.5760   -1.2635 H         1 <0>         0.1368
     18 H8          0.5329   -0.3366    0.7931 H         1 <0>         0.4302
     19 H9          2.8001   -1.5216   -0.1339 H         1 <0>         0.3987
     20 H10         1.8768    1.7541   -3.2552 H         1 <0>         0.3981
     21 H11         2.4097    3.9064   -0.0921 H         1 <0>         0.0656
     22 H12         0.7900    3.8840   -0.8300 H         1 <0>         0.0673
     23 H13         0.7801    4.9527    1.3062 H         1 <0>         0.3988
     24 H14        -0.9428   -0.3526    0.0632 H         1 <0>         0.4337
@<TRIPOS>BOND
     1    1    6 1
     2    1    2 1
     3    1   11 1
     4    1   12 1
     5    2    3 1
     6    2    9 1
     7    2   13 1
     8    3    4 1
     9    3    8 1
    10    3   14 1
    11    4    5 1
    12    4    7 1
    13    4   15 1
    14    5    6 1
    15    5   16 1
    16    5   17 1
    17    6   18 1
    18    6   24 1
    19    7   19 1
    20    8   20 1
    21    9   10 1
    22    9   21 1
    23    9   22 1
    24   10   23 1
@<TRIPOS>MOLECULE
CHEMBL345129__7
   24    24     0     0     0
SMALL
USER_CHARGES

@<TRIPOS>ATOM
      1 C1         -0.0178    1.4636    0.0101 C.3       1 <0>        -0.0036
      2 C2          1.4163    1.9970   -0.0007 C.3       1 <0>        -0.0970
      3 C3          2.1299    1.5015   -1.2619 C.3       1 <0>         0.1034
      4 C4          2.0795   -0.0286   -1.2972 C.3       1 <0>         0.0597
      5 C5          0.6208   -0.4870   -1.2383 C.3       1 <0>        -0.0437
      6 N1          0.0021   -0.0041    0.0020 N.4       1 <0>        -0.4980
      7 O1          2.6788   -0.4980   -2.5066 O.3       1 <0>        -0.5388
      8 O2          1.4766    2.0280   -2.4186 O.3       1 <0>        -0.5567
      9 C6          1.3925    3.5268    0.0052 C.3       1 <0>         0.0851
     10 O3          0.8267    3.9897    1.2330 O.3       1 <0>        -0.5804
     11 H1         -0.5288    1.8147    0.9066 H         1 <0>         0.1451
     12 H2         -0.5458    1.8242   -0.8727 H         1 <0>         0.1397
     13 H3          1.9452    1.6372    0.8818 H         1 <0>         0.1156
     14 H4          3.1686    1.8318   -1.2465 H         1 <0>         0.0950
     15 H5          2.6221   -0.4305   -0.4415 H         1 <0>         0.0893
     16 H6          0.0792   -0.0848   -2.0945 H         1 <0>         0.1436
     17 H7          0.5813   -1.5760   -1.2635 H         1 <0>         0.1355
     18 H8          0.5329   -0.3366    0.7931 H         1 <0>         0.4276
     19 H9          2.6816   -1.4609   -2.5962 H         1 <0>         0.4004
     20 H10         1.8768    1.7541   -3.2552 H         1 <0>         0.4032
     21 H11         2.4097    3.9064   -0.0921 H         1 <0>         0.0674
     22 H12         0.7900    3.8840   -0.8300 H         1 <0>         0.0700
     23 H13         0.7801    4.9527    1.3062 H         1 <0>         0.4004
     24 H14        -0.9428   -0.3526    0.0632 H         1 <0>         0.4372
@<TRIPOS>BOND
     1    1    6 1
     2    1    2 1
     3    1   11 1
     4    1   12 1
     5    2    3 1
     6    2    9 1
     7    2   13 1
     8    3    4 1
     9    3    8 1
    10    3   14 1
    11    4    5 1
    12    4    7 1
    13    4   15 1
    14    5    6 1
    15    5   16 1
    16    5   17 1
    17    6   18 1
    18    6   24 1
    19    7   19 1
    20    8   20 1
    21    9   10 1
    22    9   21 1
    23    9   22 1
    24   10   23 1
@<TRIPOS>MOLECULE
CHEMBL421040
   29    30     0     0     0
SMALL
USER_CHARGES

@<TRIPOS>ATOM
      1 C1         -0.0189    1.5456    0.0105 C.3       1 <0>        -0.1809
      2 C2          1.4639    1.9676   -0.0014 C.3       1 <0>        -0.0016
      3 N1          2.2630    0.7133   -0.1043 N.4       1 <0>        -0.3785
      4 C3          2.4241    0.4458   -1.5399 C.3       1 <0>        -0.0109
      5 C4          3.0039   -0.9455   -1.7791 C.3       1 <0>         0.0642
      6 H1          3.9573   -1.0404   -1.2593 H         1 <0>         0.0792
      7 C5          2.0127   -1.9819   -1.2341 C.3       1 <0>         0.0239
      8 H2          1.0513   -1.8723   -1.7360 H         1 <0>         0.1271
      9 C6          1.8456   -1.7288    0.2654 C.3       1 <0>         0.1206
     10 H3          2.7951   -1.9159    0.7669 H         1 <0>         0.0812
     11 C7          1.4146   -0.3080    0.5373 C.3       1 <0>         0.0378
     12 C8          0.0021   -0.0041    0.0020 C.3       1 <0>         0.1000
     13 O1         -0.1607   -0.5094   -1.3247 O.3       1 <0>        -0.5518
     14 O2          0.8588   -2.6231    0.7837 O.3       1 <0>        -0.5423
     15 O3          2.5231   -3.2991   -1.4493 O.3       1 <0>        -0.5559
     16 O4          3.1965   -1.1526   -3.1798 O.3       1 <0>        -0.5422
     17 H4         -0.5096    1.9125    0.9121 H         1 <0>         0.1188
     18 H5         -0.5267    1.9221   -0.8775 H         1 <0>         0.1133
     19 H6          1.6628    2.6086   -0.8603 H         1 <0>         0.1398
     20 H7          1.7101    2.4925    0.9217 H         1 <0>         0.1399
     21 H8          1.4521    0.5168   -2.0280 H         1 <0>         0.1574
     22 H9          3.0939    1.1909   -1.9693 H         1 <0>         0.1377
     23 H10         1.4109   -0.1385    1.6141 H         1 <0>         0.1614
     24 H11        -0.7615   -0.4074    0.6671 H         1 <0>         0.1229
     25 H12        -0.9996   -0.2647   -1.7387 H         1 <0>         0.4016
     26 H13         1.0778   -3.5583    0.6715 H         1 <0>         0.4104
     27 H14         2.6747   -3.5150   -2.3797 H         1 <0>         0.3938
     28 H15         3.5633   -2.0191   -3.4025 H         1 <0>         0.4000
     29 H16         3.1511    0.8017    0.3665 H         1 <0>         0.4333
@<TRIPOS>BOND
     1    1   12 1
     2    1    2 1
     3    1   17 1
     4    1   18 1
     5    2    3 1
     6    2   19 1
     7    2   20 1
     8    3   11 1
     9    3    4 1
    10    3   29 1
    11    4    5 1
    12    4   21 1
    13    4   22 1
    14    5    6 1
    15    5    7 1
    16    5   16 1
    17    7    8 1
    18    7    9 1
    19    7   15 1
    20    9   10 1
    21    9   11 1
    22    9   14 1
    23   11   12 1
    24   11   23 1
    25   12   13 1
    26   12   24 1
    27   13   25 1
    28   14   26 1
    29   15   27 1
    30   16   28 1
@<TRIPOS>MOLECULE
CHEMBL421040__1
   29    30     0     0     0
SMALL
USER_CHARGES

@<TRIPOS>ATOM
      1 C1         -0.0189    1.5456    0.0105 C.3       1 <0>        -0.1892
      2 C2          1.4639    1.9676   -0.0014 C.3       1 <0>        -0.0008
      3 N1          2.2630    0.7133   -0.1043 N.4       1 <0>        -0.3751
      4 C3          2.4241    0.4458   -1.5399 C.3       1 <0>        -0.0097
      5 C4          3.0039   -0.9455   -1.7791 C.3       1 <0>         0.0590
      6 H1          3.9573   -1.0404   -1.2593 H         1 <0>         0.0907
      7 C5          2.0127   -1.9819   -1.2341 C.3       1 <0>         0.0287
      8 H2          1.0513   -1.8723   -1.7360 H         1 <0>         0.0902
      9 C6          1.8456   -1.7288    0.2654 C.3       1 <0>         0.1167
     10 H3          2.7951   -1.9159    0.7669 H         1 <0>         0.0878
     11 C7          1.4146   -0.3080    0.5373 C.3       1 <0>         0.0302
     12 C8          0.0021   -0.0041    0.0020 C.3       1 <0>         0.1068
     13 O1         -0.9989   -0.5329    0.8740 O.3       1 <0>        -0.5244
     14 O2          0.8588   -2.6231    0.7837 O.3       1 <0>        -0.5266
     15 O3          2.5231   -3.2991   -1.4493 O.3       1 <0>        -0.5463
     16 O4          3.1965   -1.1526   -3.1798 O.3       1 <0>        -0.5417
     17 H4         -0.5096    1.9125    0.9121 H         1 <0>         0.1205
     18 H5         -0.5267    1.9221   -0.8775 H         1 <0>         0.1119
     19 H6          1.6628    2.6086   -0.8603 H         1 <0>         0.1426
     20 H7          1.7101    2.4925    0.9217 H         1 <0>         0.1425
     21 H8          1.4521    0.5168   -2.0280 H         1 <0>         0.1396
     22 H9          3.0939    1.1909   -1.9693 H         1 <0>         0.1495
     23 H10         1.4109   -0.1385    1.6141 H         1 <0>         0.1613
     24 H11        -0.1220   -0.3895   -1.0100 H         1 <0>         0.0894
     25 H12        -1.9023   -0.2899    0.6289 H         1 <0>         0.4010
     26 H13         1.0778   -3.5583    0.6715 H         1 <0>         0.4065
     27 H14         2.6747   -3.5150   -2.3797 H         1 <0>         0.3959
     28 H15         3.5633   -2.0191   -3.4025 H         1 <0>         0.4033
     29 H16         3.1511    0.8017    0.3665 H         1 <0>         0.4397
@<TRIPOS>BOND
     1    1   12 1
     2    1    2 1
     3    1   17 1
     4    1   18 1
     5    2    3 1
     6    2   19 1
     7    2   20 1
     8    3   11 1
     9    3    4 1
    10    3   29 1
    11    4    5 1
    12    4   21 1
    13    4   22 1
    14    5    6 1
    15    5    7 1
    16    5   16 1
    17    7    8 1
    18    7    9 1
    19    7   15 1
    20    9   10 1
    21    9   11 1
    22    9   14 1
    23   11   12 1
    24   11   23 1
    25   12   13 1
    26   12   24 1
    27   13   25 1
    28   14   26 1
    29   15   27 1
    30   16   28 1
@<TRIPOS>MOLECULE
CHEMBL421040__2
   29    30     0     0     0
SMALL
USER_CHARGES

@<TRIPOS>ATOM
      1 C1         -0.0189    1.5461    0.0105 C.3       1 <0>        -0.1870
      2 C2          1.4755    1.9658   -0.0015 C.3       1 <0>         0.0028
      3 N1          2.1638    0.7980    0.5711 N.4       1 <0>        -0.3845
      4 C3          3.5885    0.7113    0.2797 C.3       1 <0>         0.0031
      5 C4          4.1382   -0.5349    0.9903 C.3       1 <0>         0.0565
      6 H1          4.0129   -0.4184    2.0668 H         1 <0>         0.0902
      7 C5          3.3993   -1.7913    0.5310 C.3       1 <0>         0.0235
      8 H2          3.6346   -1.9843   -0.5157 H         1 <0>         0.0940
      9 C6          1.8805   -1.6110    0.6844 C.3       1 <0>         0.1132
     10 H3          1.6258   -1.4954    1.7379 H         1 <0>         0.0882
     11 C7          1.4904   -0.3562   -0.0824 C.3       1 <0>         0.0348
     12 C8          0.0021   -0.0041    0.0020 C.3       1 <0>         0.1055
     13 O1         -0.6970   -0.5080   -1.1379 O.3       1 <0>        -0.5364
     14 O2          1.1997   -2.7444    0.1421 O.3       1 <0>        -0.5287
     15 O3          3.8236   -2.9032    1.3220 O.3       1 <0>        -0.5479
     16 O4          5.5287   -0.6720    0.6908 O.3       1 <0>        -0.5402
     17 H4         -0.5087    1.9137    0.9123 H         1 <0>         0.1110
     18 H5         -0.5258    1.9233   -0.8777 H         1 <0>         0.1255
     19 H6          1.8145    2.1495   -1.0210 H         1 <0>         0.1404
     20 H7          1.6319    2.8469    0.6209 H         1 <0>         0.1448
     21 H8          3.7405    0.6200   -0.7958 H         1 <0>         0.1438
     22 H9          4.0961    1.6017    0.6507 H         1 <0>         0.1501
     23 H10         1.8121   -0.4380   -1.1207 H         1 <0>         0.1609
     24 H11        -0.4317   -0.3969    0.9216 H         1 <0>         0.0981
     25 H12        -1.6320   -0.2629   -1.1659 H         1 <0>         0.4037
     26 H13         1.4286   -3.5817    0.5683 H         1 <0>         0.4086
     27 H14         4.7707   -3.0892    1.2631 H         1 <0>         0.3961
     28 H15         5.9466   -1.4391    1.1057 H         1 <0>         0.4023
     29 H16         2.0105    0.7647    1.5678 H         1 <0>         0.4277
@<TRIPOS>BOND
     1    1   12 1
     2    1    2 1
     3    1   17 1
     4    1   18 1
     5    2    3 1
     6    2   19 1
     7    2   20 1
     8    3   11 1
     9    3    4 1
    10    3   29 1
    11    4    5 1
    12    4   21 1
    13    4   22 1
    14    5    6 1
    15    5    7 1
    16    5   16 1
    17    7    8 1
    18    7    9 1
    19    7   15 1
    20    9   10 1
    21    9   11 1
    22    9   14 1
    23   11   12 1
    24   11   23 1
    25   12   13 1
    26   12   24 1
    27   13   25 1
    28   14   26 1
    29   15   27 1
    30   16   28 1
@<TRIPOS>MOLECULE
CHEMBL421040__3
   29    30     0     0     0
SMALL
USER_CHARGES

@<TRIPOS>ATOM
      1 C1         -0.0189    1.5461    0.0105 C.3       1 <0>        -0.1831
      2 C2          1.4755    1.9658   -0.0015 C.3       1 <0>         0.0018
      3 N1          2.1638    0.7980    0.5711 N.4       1 <0>        -0.3882
      4 C3          3.5885    0.7113    0.2797 C.3       1 <0>         0.0021
      5 C4          4.1382   -0.5349    0.9903 C.3       1 <0>         0.0561
      6 H1          4.0129   -0.4184    2.0668 H         1 <0>         0.0895
      7 C5          3.3993   -1.7913    0.5310 C.3       1 <0>         0.0214
      8 H2          3.6346   -1.9843   -0.5157 H         1 <0>         0.0915
      9 C6          1.8805   -1.6110    0.6844 C.3       1 <0>         0.1208
     10 H3          1.6258   -1.4954    1.7379 H         1 <0>         0.0954
     11 C7          1.4904   -0.3562   -0.0824 C.3       1 <0>         0.0407
     12 C8          0.0021   -0.0041    0.0020 C.3       1 <0>         0.0999
     13 O1         -0.5666   -0.5191    1.2076 O.3       1 <0>        -0.5527
     14 O2          1.1997   -2.7444    0.1421 O.3       1 <0>        -0.5341
     15 O3          3.8236   -2.9032    1.3220 O.3       1 <0>        -0.5472
     16 O4          5.5287   -0.6720    0.6908 O.3       1 <0>        -0.5412
     17 H4         -0.5087    1.9137    0.9123 H         1 <0>         0.1123
     18 H5         -0.5258    1.9233   -0.8777 H         1 <0>         0.1231
     19 H6          1.8145    2.1495   -1.0210 H         1 <0>         0.1401
     20 H7          1.6319    2.8469    0.6209 H         1 <0>         0.1434
     21 H8          3.7405    0.6200   -0.7958 H         1 <0>         0.1429
     22 H9          4.0961    1.6017    0.6507 H         1 <0>         0.1480
     23 H10         1.8121   -0.4380   -1.1207 H         1 <0>         0.1606
     24 H11        -0.5312   -0.3884   -0.8675 H         1 <0>         0.1154
     25 H12        -1.4926   -0.2748    1.3414 H         1 <0>         0.4052
     26 H13         1.4286   -3.5817    0.5683 H         1 <0>         0.4088
     27 H14         4.7707   -3.0892    1.2631 H         1 <0>         0.3948
     28 H15         5.9466   -1.4391    1.1057 H         1 <0>         0.4020
     29 H16         2.0105    0.7647    1.5678 H         1 <0>         0.4305
@<TRIPOS>BOND
     1    1   12 1
     2    1    2 1
     3    1   17 1
     4    1   18 1
     5    2    3 1
     6    2   19 1
     7    2   20 1
     8    3   11 1
     9    3    4 1
    10    3   29 1
    11    4    5 1
    12    4   21 1
    13    4   22 1
    14    5    6 1
    15    5    7 1
    16    5   16 1
    17    7    8 1
    18    7    9 1
    19    7   15 1
    20    9   10 1
    21    9   11 1
    22    9   14 1
    23   11   12 1
    24   11   23 1
    25   12   13 1
    26   12   24 1
    27   13   25 1
    28   14   26 1
    29   15   27 1
    30   16   28 1
@<TRIPOS>MOLECULE
CHEMBL408500
   52    52     0     0     0
SMALL
USER_CHARGES

@<TRIPOS>ATOM
      1 C1         -0.6215    1.8605   -0.9102 C.3       1 <0>        -0.1558
      2 C2         -0.5199    0.3340   -0.8884 C.3       1 <0>        -0.1263
      3 C3         -1.9135   -0.2672   -0.6951 C.3       1 <0>        -0.1218
      4 C4         -1.8119   -1.7936   -0.6733 C.3       1 <0>        -0.1218
      5 C5         -3.2055   -2.3948   -0.4801 C.3       1 <0>        -0.1216
      6 C6         -3.1039   -3.9213   -0.4583 C.3       1 <0>        -0.1214
      7 C7         -4.4975   -4.5225   -0.2650 C.3       1 <0>        -0.1170
      8 C8         -4.3959   -6.0489   -0.2432 C.3       1 <0>        -0.1490
      9 C9         -5.7895   -6.6501   -0.0500 C.3       1 <0>        -0.0134
     10 N1         -5.6919   -8.1157   -0.0291 N.4       1 <0>        -0.3726
     11 C10        -5.2201   -8.5919   -1.3349 C.3       1 <0>        -0.0105
     12 C11        -5.0392  -10.1108   -1.2932 C.3       1 <0>         0.0589
     13 H1         -4.3077  -10.3694   -0.5276 H         1 <0>         0.0900
     14 C12        -6.3810  -10.7703   -0.9621 C.3       1 <0>         0.0258
     15 H2         -7.0986  -10.5542   -1.7536 H         1 <0>         0.0911
     16 C13        -6.8996  -10.2109    0.3659 C.3       1 <0>         0.1122
     17 H3         -6.2068  -10.4716    1.1660 H         1 <0>         0.0961
     18 C14        -7.0116   -8.6883    0.2628 C.3       1 <0>         0.0359
     19 H4         -7.7047   -8.4288   -0.5374 H         1 <0>         0.1568
     20 C15        -7.5297   -8.1248    1.5875 C.3       1 <0>         0.0569
     21 O1         -6.6641   -8.5317    2.6492 O.3       1 <0>        -0.5780
     22 O2         -8.1855  -10.7668    0.6481 O.3       1 <0>        -0.5411
     23 O3         -6.2041  -12.1839   -0.8504 O.3       1 <0>        -0.5475
     24 O4         -4.5811  -10.5718   -2.5659 O.3       1 <0>        -0.5409
     25 H5          0.3713    2.2888   -1.0479 H         1 <0>         0.0559
     26 H6         -1.2678    2.1699   -1.7315 H         1 <0>         0.0541
     27 H7         -1.0404    2.2102    0.0334 H         1 <0>         0.0541
     28 H8         -0.1010   -0.0157   -1.8319 H         1 <0>         0.0608
     29 H9          0.1264    0.0246   -0.0670 H         1 <0>         0.0608
     30 H10        -2.3324    0.0826    0.2484 H         1 <0>         0.0615
     31 H11        -2.5598    0.0423   -1.5165 H         1 <0>         0.0615
     32 H12        -1.3930   -2.1434   -1.6169 H         1 <0>         0.0619
     33 H13        -1.1656   -2.1031    0.1480 H         1 <0>         0.0619
     34 H14        -3.6244   -2.0451    0.4635 H         1 <0>         0.0636
     35 H15        -3.8518   -2.0854   -1.3014 H         1 <0>         0.0636
     36 H16        -2.6850   -4.2710   -1.4018 H         1 <0>         0.0661
     37 H17        -2.4576   -4.2307    0.3631 H         1 <0>         0.0664
     38 H18        -4.9164   -4.1727    0.6785 H         1 <0>         0.0744
     39 H19        -5.1438   -4.2130   -1.0864 H         1 <0>         0.0745
     40 H20        -3.9770   -6.3987   -1.1868 H         1 <0>         0.0883
     41 H21        -3.7496   -6.3584    0.5781 H         1 <0>         0.0893
     42 H22        -6.2084   -6.3004    0.8936 H         1 <0>         0.1385
     43 H23        -6.4358   -6.3407   -0.8713 H         1 <0>         0.1342
     44 H24        -5.9514   -8.3344   -2.1009 H         1 <0>         0.1416
     45 H25        -4.2666   -8.1192   -1.5706 H         1 <0>         0.1497
     46 H26        -7.5534   -7.0364    1.5348 H         1 <0>         0.0779
     47 H27        -8.5354   -8.5015    1.7740 H         1 <0>         0.1049
     48 H28        -6.9324   -8.2096    3.5207 H         1 <0>         0.4107
     49 H29        -8.1892  -11.7308    0.7240 H         1 <0>         0.4110
     50 H30        -5.8716  -12.6035   -1.6557 H         1 <0>         0.3954
     51 H31        -4.4445  -11.5280   -2.6119 H         1 <0>         0.4021
     52 H32        -5.0383   -8.3981    0.6859 H         1 <0>         0.4305
@<TRIPOS>BOND
     1    1    2 1
     2    1   25 1
     3    1   26 1
     4    1   27 1
     5    2    3 1
     6    2   28 1
     7    2   29 1
     8    3    4 1
     9    3   30 1
    10    3   31 1
    11    4    5 1
    12    4   32 1
    13    4   33 1
    14    5    6 1
    15    5   34 1
    16    5   35 1
    17    6    7 1
    18    6   36 1
    19    6   37 1
    20    7    8 1
    21    7   38 1
    22    7   39 1
    23    8    9 1
    24    8   40 1
    25    8   41 1
    26    9   10 1
    27    9   42 1
    28    9   43 1
    29   10   18 1
    30   10   11 1
    31   10   52 1
    32   11   12 1
    33   11   44 1
    34   11   45 1
    35   12   13 1
    36   12   14 1
    37   12   24 1
    38   14   15 1
    39   14   16 1
    40   14   23 1
    41   16   17 1
    42   16   18 1
    43   16   22 1
    44   18   19 1
    45   18   20 1
    46   20   21 1
    47   20   46 1
    48   20   47 1
    49   21   48 1
    50   22   49 1
    51   23   50 1
    52   24   51 1
@<TRIPOS>MOLECULE
CHEMBL280973
   53    55     0     0     0
SMALL
USER_CHARGES

@<TRIPOS>ATOM
      1 C1         -4.0749    0.3460    0.8639 C.3       1 <0>         0.1107
      2 N1         -3.2455    0.8328   -0.2412 N.pl3     1 <0>        -0.6911
      3 C2         -2.2330    1.8634    0.0016 C.3       1 <0>         0.1145
      4 C3         -3.4196    0.3157   -1.5231 C.ar      1 <0>         0.2135
      5 C4         -4.3075    0.9065   -2.3970 C.ar      1 <0>        -0.1391
      6 C5         -4.4883    0.3981   -3.6795 C.ar      1 <0>        -0.0677
      7 C6         -3.7963   -0.6941   -4.1069 C.ar      1 <0>        -0.1638
      8 C7         -2.8816   -1.3259   -3.2474 C.ar      1 <0>         0.0380
      9 C8         -2.6843   -0.8143   -1.9411 C.ar      1 <0>        -0.0860
     10 C9         -1.7667   -1.4436   -1.0856 C.ar      1 <0>        -0.0176
     11 C10        -1.0750   -2.5320   -1.5223 C.ar      1 <0>        -0.1545
     12 C11        -1.2637   -3.0325   -2.8091 C.ar      1 <0>         0.0235
     13 C12        -2.1539   -2.4550   -3.6616 C.ar      1 <0>        -0.6887
     14 S1         -2.3771   -3.1065   -5.2835 S.o2      1 <0>         2.6955
     15 O1         -1.4650   -4.1880   -5.4158 O.2       1 <0>        -0.9398
     16 O2         -3.7772   -3.2636   -5.4689 O.2       1 <0>        -0.9334
     17 N2         -1.8862   -1.9400   -6.3515 N.pl3     1 <0>        -1.1362
     18 C13        -0.4872   -1.5056   -6.3698 C.3       1 <0>         0.0984
     19 C14        -0.2061   -0.7458   -7.6677 C.3       1 <0>         0.0301
     20 H1         -0.2948   -1.4207   -8.5190 H         1 <0>         0.1654
     21 C15         1.2122   -0.1392   -7.6243 C.3       1 <0>         0.0662
     22 C16         1.0245    1.2380   -8.3136 C.3       1 <0>         0.0606
     23 H2          1.7715    1.9526   -7.9680 H         1 <0>         0.1139
     24 C17        -0.3919    1.6389   -7.8313 C.3       1 <0>         0.0360
     25 H3         -0.3443    2.0706   -6.8315 H         1 <0>         0.1676
     26 N3         -1.1582    0.3708   -7.8116 N.4       1 <0>        -0.5101
     27 C18        -1.0267    2.6302   -8.8087 C.3       1 <0>         0.0605
     28 O3         -0.9911    2.0858  -10.1294 O.3       1 <0>        -0.5498
     29 O4          1.0640    1.1080   -9.7361 O.3       1 <0>        -0.5124
     30 O5          2.1314   -0.9505   -8.3582 O.3       1 <0>        -0.5354
     31 H4         -4.9757    0.9552    0.9379 H         1 <0>         0.0428
     32 H5         -4.3524   -0.6920    0.6801 H         1 <0>         0.0568
     33 H6         -3.5138    0.4125    1.7960 H         1 <0>         0.0653
     34 H7         -1.2868    1.3890    0.2619 H         1 <0>         0.0372
     35 H8         -2.1028    2.4640   -0.8986 H         1 <0>         0.0544
     36 H9         -2.5562    2.5040    0.8222 H         1 <0>         0.0660
     37 H10        -4.8693    1.7735   -2.0823 H         1 <0>         0.1322
     38 H11        -5.1892    0.8773   -4.3469 H         1 <0>         0.1328
     39 H12        -3.9506   -1.0747   -5.1058 H         1 <0>         0.1258
     40 H13        -1.6098   -1.0661   -0.0859 H         1 <0>         0.1390
     41 H14        -0.3695   -3.0144   -0.8620 H         1 <0>         0.1400
     42 H15        -0.7021   -3.8968   -3.1315 H         1 <0>         0.1484
     43 H16        -2.5250   -1.5443   -6.9649 H         1 <0>         0.4125
     44 H17        -0.2985   -0.8522   -5.5181 H         1 <0>         0.0975
     45 H18         0.1646   -2.3772   -6.3106 H         1 <0>         0.1343
     46 H19         1.5457   -0.0123   -6.5943 H         1 <0>         0.1091
     47 H20        -1.6730    0.2692   -8.6734 H         1 <0>         0.4439
     48 H21        -2.0613    2.8139   -8.5191 H         1 <0>         0.0716
     49 H22        -0.4714    3.5679   -8.7871 H         1 <0>         0.0939
     50 H23        -1.3779    2.6620  -10.8029 H         1 <0>         0.4010
     51 H24         1.9021    0.7664  -10.0767 H         1 <0>         0.3938
     52 H25         3.0376   -0.6130   -8.3621 H         1 <0>         0.4054
     53 H26        -1.7996    0.3726   -7.0326 H         1 <0>         0.4272
@<TRIPOS>BOND
     1    1    2 1
     2    1   31 1
     3    1   32 1
     4    1   33 1
     5    2    3 1
     6    2    4 1
     7    3   34 1
     8    3   35 1
     9    3   36 1
    10    4    9 ar
    11    4    5 ar
    12    5    6 ar
    13    5   37 1
    14    6    7 ar
    15    6   38 1
    16    7    8 ar
    17    7   39 1
    18    8   13 ar
    19    8    9 ar
    20    9   10 ar
    21   10   11 ar
    22   10   40 1
    23   11   12 ar
    24   11   41 1
    25   12   13 ar
    26   12   42 1
    27   13   14 1
    28   14   15 2
    29   14   16 2
    30   14   17 1
    31   17   18 1
    32   17   43 1
    33   18   19 1
    34   18   44 1
    35   18   45 1
    36   19   20 1
    37   19   26 1
    38   19   21 1
    39   21   22 1
    40   21   30 1
    41   21   46 1
    42   22   23 1
    43   22   24 1
    44   22   29 1
    45   24   25 1
    46   24   26 1
    47   24   27 1
    48   26   47 1
    49   26   53 1
    50   27   28 1
    51   27   48 1
    52   27   49 1
    53   28   50 1
    54   29   51 1
    55   30   52 1
@<TRIPOS>MOLECULE
CHEMBL280973__1
   52    54     0     0     0
SMALL
USER_CHARGES

@<TRIPOS>ATOM
      1 C1         -4.0823    0.3349    0.8651 C.3       1 <0>         0.1143
      2 N1         -3.2525    0.8239   -0.2389 N.pl3     1 <0>        -0.6876
      3 C2         -2.2412    1.8552    0.0060 C.3       1 <0>         0.1155
      4 C3         -3.4251    0.3082   -1.5215 C.ar      1 <0>         0.1940
      5 C4         -4.3130    0.8992   -2.3953 C.ar      1 <0>        -0.1310
      6 C5         -4.4923    0.3922   -3.6786 C.ar      1 <0>        -0.0740
      7 C6         -3.7989   -0.6988   -4.1068 C.ar      1 <0>        -0.1347
      8 C7         -2.8843   -1.3307   -3.2474 C.ar      1 <0>         0.0385
      9 C8         -2.6885   -0.8205   -1.9403 C.ar      1 <0>        -0.0827
     10 C9         -1.7709   -1.4500   -1.0849 C.ar      1 <0>        -0.0292
     11 C10        -1.0778   -2.5373   -1.5224 C.ar      1 <0>        -0.1552
     12 C11        -1.2651   -3.0363   -2.8100 C.ar      1 <0>         0.0103
     13 C12        -2.1552   -2.4587   -3.6624 C.ar      1 <0>        -0.6739
     14 S1         -2.3766   -3.1084   -5.2853 S.o2      1 <0>         2.6956
     15 O1         -1.4632   -4.1887   -5.4183 O.2       1 <0>        -0.9591
     16 O2         -3.7763   -3.2668   -5.4718 O.2       1 <0>        -0.9537
     17 N2         -1.8862   -1.9400   -6.3515 N.pl3     1 <0>        -1.1048
     18 C13        -0.4872   -1.5056   -6.3698 C.3       1 <0>         0.1376
     19 C14        -0.2061   -0.7458   -7.6677 C.3       1 <0>         0.0797
     20 H1         -0.3191   -1.4148   -8.5208 H         1 <0>         0.0885
     21 C15         1.2249   -0.1689   -7.6389 C.3       1 <0>         0.0599
     22 C16         1.0576    1.2150   -8.3199 C.3       1 <0>         0.0428
     23 H2          1.8234    1.9124   -7.9803 H         1 <0>         0.0766
     24 C17        -0.3443    1.6430   -7.8186 C.3       1 <0>         0.0919
     25 H3         -0.2756    2.0689   -6.8176 H         1 <0>         0.1095
     26 N3         -1.1365    0.3909   -7.7951 N.3       1 <0>        -0.6562
     27 C18        -0.9701    2.6517   -8.7838 C.3       1 <0>         0.0803
     28 O3         -2.2081    3.1207   -8.2460 O.3       1 <0>        -0.5665
     29 O4          1.0771    1.0908   -9.7433 O.3       1 <0>        -0.5480
     30 O5          2.1182   -0.9957   -8.3876 O.3       1 <0>        -0.5498
     31 H4         -4.9837    0.9432    0.9391 H         1 <0>         0.0384
     32 H5         -4.3586   -0.7030    0.6798 H         1 <0>         0.0554
     33 H6         -3.5219    0.4008    1.7976 H         1 <0>         0.0601
     34 H7         -1.2948    1.3814    0.2664 H         1 <0>         0.0345
     35 H8         -2.1109    2.4571   -0.8934 H         1 <0>         0.0564
     36 H9         -2.5656    2.4945    0.8271 H         1 <0>         0.0610
     37 H10        -4.8759    1.7653   -2.0800 H         1 <0>         0.1275
     38 H11        -5.1932    0.8716   -4.3459 H         1 <0>         0.1318
     39 H12        -3.9521   -1.0783   -5.1063 H         1 <0>         0.1321
     40 H13        -1.6150   -1.0736   -0.0847 H         1 <0>         0.1333
     41 H14        -0.3723   -3.0197   -0.8622 H         1 <0>         0.1336
     42 H15        -0.7024   -3.8996   -3.1330 H         1 <0>         0.1443
     43 H16        -2.5253   -1.5432   -6.9639 H         1 <0>         0.4227
     44 H17        -0.2985   -0.8522   -5.5181 H         1 <0>         0.0669
     45 H18         0.1646   -2.3772   -6.3106 H         1 <0>         0.0841
     46 H19         1.5734   -0.0538   -6.6126 H         1 <0>         0.0828
     47 H20        -1.7030    0.3032   -8.6254 H         1 <0>         0.3509
     48 H21        -0.2911    3.4934   -8.9203 H         1 <0>         0.0521
     49 H22        -1.1506    2.1708   -9.7452 H         1 <0>         0.0566
     50 H23        -2.6616    3.7651   -8.8066 H         1 <0>         0.3810
     51 H24         1.9037    0.7335  -10.0956 H         1 <0>         0.3837
     52 H25         3.0310   -0.6770   -8.4011 H         1 <0>         0.3822
@<TRIPOS>BOND
     1    1    2 1
     2    1   31 1
     3    1   32 1
     4    1   33 1
     5    2    3 1
     6    2    4 1
     7    3   34 1
     8    3   35 1
     9    3   36 1
    10    4    9 ar
    11    4    5 ar
    12    5    6 ar
    13    5   37 1
    14    6    7 ar
    15    6   38 1
    16    7    8 ar
    17    7   39 1
    18    8   13 ar
    19    8    9 ar
    20    9   10 ar
    21   10   11 ar
    22   10   40 1
    23   11   12 ar
    24   11   41 1
    25   12   13 ar
    26   12   42 1
    27   13   14 1
    28   14   15 2
    29   14   16 2
    30   14   17 1
    31   17   18 1
    32   17   43 1
    33   18   19 1
    34   18   44 1
    35   18   45 1
    36   19   20 1
    37   19   26 1
    38   19   21 1
    39   21   22 1
    40   21   30 1
    41   21   46 1
    42   22   23 1
    43   22   24 1
    44   22   29 1
    45   24   25 1
    46   24   26 1
    47   24   27 1
    48   26   47 1
    49   27   28 1
    50   27   48 1
    51   27   49 1
    52   28   50 1
    53   29   51 1
    54   30   52 1
@<TRIPOS>MOLECULE
CHEMBL280973__2
   53    55     0     0     0
SMALL
USER_CHARGES

@<TRIPOS>ATOM
      1 C1         -4.0749    0.3460    0.8639 C.3       1 <0>         0.1109
      2 N1         -3.2455    0.8328   -0.2412 N.pl3     1 <0>        -0.6910
      3 C2         -2.2330    1.8634    0.0016 C.3       1 <0>         0.1145
      4 C3         -3.4196    0.3157   -1.5231 C.ar      1 <0>         0.2133
      5 C4         -4.3075    0.9065   -2.3970 C.ar      1 <0>        -0.1394
      6 C5         -4.4883    0.3981   -3.6795 C.ar      1 <0>        -0.0686
      7 C6         -3.7963   -0.6941   -4.1069 C.ar      1 <0>        -0.1630
      8 C7         -2.8816   -1.3259   -3.2474 C.ar      1 <0>         0.0390
      9 C8         -2.6843   -0.8143   -1.9411 C.ar      1 <0>        -0.0854
     10 C9         -1.7667   -1.4436   -1.0856 C.ar      1 <0>        -0.0179
     11 C10        -1.0750   -2.5320   -1.5223 C.ar      1 <0>        -0.1540
     12 C11        -1.2637   -3.0325   -2.8091 C.ar      1 <0>         0.0244
     13 C12        -2.1539   -2.4550   -3.6616 C.ar      1 <0>        -0.6871
     14 S1         -2.3771   -3.1065   -5.2835 S.o2      1 <0>         2.6969
     15 O1         -1.4650   -4.1880   -5.4158 O.2       1 <0>        -0.9422
     16 O2         -3.7772   -3.2636   -5.4689 O.2       1 <0>        -0.9356
     17 N2         -1.8862   -1.9400   -6.3515 N.pl3     1 <0>        -1.1388
     18 C13        -0.4872   -1.5056   -6.3698 C.3       1 <0>         0.1020
     19 C14        -0.2061   -0.7458   -7.6677 C.3       1 <0>         0.0355
     20 H1         -0.2948   -1.4207   -8.5190 H         1 <0>         0.1642
     21 C15         1.2122   -0.1392   -7.6243 C.3       1 <0>         0.0639
     22 C16         1.0245    1.2380   -8.3136 C.3       1 <0>         0.0652
     23 H2          1.7715    1.9526   -7.9680 H         1 <0>         0.1137
     24 C17        -0.3919    1.6389   -7.8313 C.3       1 <0>         0.0416
     25 H3         -0.3443    2.0706   -6.8315 H         1 <0>         0.1668
     26 N3         -1.1582    0.3708   -7.8116 N.4       1 <0>        -0.5130
     27 C18        -1.0267    2.6302   -8.8087 C.3       1 <0>         0.0596
     28 O3         -0.9911    2.0858  -10.1294 O.3       1 <0>        -0.5511
     29 O4          1.0640    1.1080   -9.7361 O.3       1 <0>        -0.5173
     30 O5          1.6494    0.0271   -6.2740 O.3       1 <0>        -0.5476
     31 H4         -4.9757    0.9552    0.9379 H         1 <0>         0.0425
     32 H5         -4.3524   -0.6920    0.6801 H         1 <0>         0.0567
     33 H6         -3.5138    0.4125    1.7960 H         1 <0>         0.0651
     34 H7         -1.2868    1.3890    0.2619 H         1 <0>         0.0372
     35 H8         -2.1028    2.4640   -0.8986 H         1 <0>         0.0545
     36 H9         -2.5562    2.5040    0.8222 H         1 <0>         0.0657
     37 H10        -4.8693    1.7735   -2.0823 H         1 <0>         0.1318
     38 H11        -5.1892    0.8773   -4.3469 H         1 <0>         0.1323
     39 H12        -3.9506   -1.0747   -5.1058 H         1 <0>         0.1253
     40 H13        -1.6098   -1.0661   -0.0859 H         1 <0>         0.1386
     41 H14        -0.3695   -3.0144   -0.8620 H         1 <0>         0.1396
     42 H15        -0.7021   -3.8968   -3.1315 H         1 <0>         0.1478
     43 H16        -2.5250   -1.5443   -6.9649 H         1 <0>         0.4107
     44 H17        -0.2985   -0.8522   -5.5181 H         1 <0>         0.1096
     45 H18         0.1646   -2.3772   -6.3106 H         1 <0>         0.1296
     46 H19         1.9134   -0.7580   -8.1841 H         1 <0>         0.1187
     47 H20        -1.6730    0.2692   -8.6734 H         1 <0>         0.4411
     48 H21        -2.0613    2.8139   -8.5191 H         1 <0>         0.0710
     49 H22        -0.4714    3.5679   -8.7871 H         1 <0>         0.0932
     50 H23        -1.3779    2.6620  -10.8029 H         1 <0>         0.4010
     51 H24         1.9021    0.7664  -10.0767 H         1 <0>         0.3944
     52 H25         2.5355    0.4053   -6.1913 H         1 <0>         0.4073
     53 H26        -1.7996    0.3726   -7.0326 H         1 <0>         0.4270
@<TRIPOS>BOND
     1    1    2 1
     2    1   31 1
     3    1   32 1
     4    1   33 1
     5    2    3 1
     6    2    4 1
     7    3   34 1
     8    3   35 1
     9    3   36 1
    10    4    9 ar
    11    4    5 ar
    12    5    6 ar
    13    5   37 1
    14    6    7 ar
    15    6   38 1
    16    7    8 ar
    17    7   39 1
    18    8   13 ar
    19    8    9 ar
    20    9   10 ar
    21   10   11 ar
    22   10   40 1
    23   11   12 ar
    24   11   41 1
    25   12   13 ar
    26   12   42 1
    27   13   14 1
    28   14   15 2
    29   14   16 2
    30   14   17 1
    31   17   18 1
    32   17   43 1
    33   18   19 1
    34   18   44 1
    35   18   45 1
    36   19   20 1
    37   19   26 1
    38   19   21 1
    39   21   22 1
    40   21   30 1
    41   21   46 1
    42   22   23 1
    43   22   24 1
    44   22   29 1
    45   24   25 1
    46   24   26 1
    47   24   27 1
    48   26   47 1
    49   26   53 1
    50   27   28 1
    51   27   48 1
    52   27   49 1
    53   28   50 1
    54   29   51 1
    55   30   52 1
@<TRIPOS>MOLECULE
CHEMBL280973__3
   52    54     0     0     0
SMALL
USER_CHARGES

@<TRIPOS>ATOM
      1 C1         -4.0823    0.3349    0.8651 C.3       1 <0>         0.1146
      2 N1         -3.2525    0.8239   -0.2389 N.pl3     1 <0>        -0.6875
      3 C2         -2.2412    1.8552    0.0060 C.3       1 <0>         0.1155
      4 C3         -3.4251    0.3082   -1.5215 C.ar      1 <0>         0.1938
      5 C4         -4.3130    0.8992   -2.3953 C.ar      1 <0>        -0.1314
      6 C5         -4.4923    0.3922   -3.6786 C.ar      1 <0>        -0.0749
      7 C6         -3.7989   -0.6988   -4.1068 C.ar      1 <0>        -0.1338
      8 C7         -2.8843   -1.3307   -3.2474 C.ar      1 <0>         0.0394
      9 C8         -2.6885   -0.8205   -1.9403 C.ar      1 <0>        -0.0821
     10 C9         -1.7709   -1.4500   -1.0849 C.ar      1 <0>        -0.0296
     11 C10        -1.0778   -2.5373   -1.5224 C.ar      1 <0>        -0.1546
     12 C11        -1.2651   -3.0363   -2.8100 C.ar      1 <0>         0.0112
     13 C12        -2.1552   -2.4587   -3.6624 C.ar      1 <0>        -0.6723
     14 S1         -2.3766   -3.1084   -5.2853 S.o2      1 <0>         2.6963
     15 O1         -1.4632   -4.1887   -5.4183 O.2       1 <0>        -0.9614
     16 O2         -3.7763   -3.2668   -5.4718 O.2       1 <0>        -0.9561
     17 N2         -1.8862   -1.9400   -6.3515 N.pl3     1 <0>        -1.1075
     18 C13        -0.4872   -1.5056   -6.3698 C.3       1 <0>         0.1425
     19 C14        -0.2061   -0.7458   -7.6677 C.3       1 <0>         0.0823
     20 H1         -0.3191   -1.4148   -8.5208 H         1 <0>         0.0843
     21 C15         1.2249   -0.1689   -7.6389 C.3       1 <0>         0.0628
     22 C16         1.0576    1.2150   -8.3199 C.3       1 <0>         0.0429
     23 H2          1.8234    1.9124   -7.9803 H         1 <0>         0.0777
     24 C17        -0.3443    1.6430   -7.8186 C.3       1 <0>         0.0992
     25 H3         -0.2756    2.0689   -6.8176 H         1 <0>         0.1099
     26 N3         -1.1365    0.3909   -7.7951 N.3       1 <0>        -0.6587
     27 C18        -0.9701    2.6517   -8.7838 C.3       1 <0>         0.0786
     28 O3         -2.2081    3.1207   -8.2460 O.3       1 <0>        -0.5658
     29 O4          1.0771    1.0908   -9.7433 O.3       1 <0>        -0.5530
     30 O5          1.6818   -0.0180   -6.2934 O.3       1 <0>        -0.5439
     31 H4         -4.9837    0.9432    0.9391 H         1 <0>         0.0380
     32 H5         -4.3586   -0.7030    0.6798 H         1 <0>         0.0553
     33 H6         -3.5219    0.4008    1.7976 H         1 <0>         0.0599
     34 H7         -1.2948    1.3814    0.2664 H         1 <0>         0.0346
     35 H8         -2.1109    2.4571   -0.8934 H         1 <0>         0.0565
     36 H9         -2.5656    2.4945    0.8271 H         1 <0>         0.0606
     37 H10        -4.8759    1.7653   -2.0800 H         1 <0>         0.1271
     38 H11        -5.1932    0.8716   -4.3459 H         1 <0>         0.1312
     39 H12        -3.9521   -1.0783   -5.1063 H         1 <0>         0.1316
     40 H13        -1.6150   -1.0736   -0.0847 H         1 <0>         0.1329
     41 H14        -0.3723   -3.0197   -0.8622 H         1 <0>         0.1332
     42 H15        -0.7024   -3.8996   -3.1330 H         1 <0>         0.1436
     43 H16        -2.5253   -1.5432   -6.9639 H         1 <0>         0.4210
     44 H17        -0.2985   -0.8522   -5.5181 H         1 <0>         0.0807
     45 H18         0.1646   -2.3772   -6.3106 H         1 <0>         0.0784
     46 H19         1.9062   -0.7995   -8.2100 H         1 <0>         0.0775
     47 H20        -1.7030    0.3032   -8.6254 H         1 <0>         0.3473
     48 H21        -0.2911    3.4934   -8.9203 H         1 <0>         0.0510
     49 H22        -1.1506    2.1708   -9.7452 H         1 <0>         0.0552
     50 H23        -2.6616    3.7651   -8.8066 H         1 <0>         0.3802
     51 H24         1.9037    0.7335  -10.0956 H         1 <0>         0.3836
     52 H25         2.5765    0.3414   -6.2198 H         1 <0>         0.3819
@<TRIPOS>BOND
     1    1    2 1
     2    1   31 1
     3    1   32 1
     4    1   33 1
     5    2    3 1
     6    2    4 1
     7    3   34 1
     8    3   35 1
     9    3   36 1
    10    4    9 ar
    11    4    5 ar
    12    5    6 ar
    13    5   37 1
    14    6    7 ar
    15    6   38 1
    16    7    8 ar
    17    7   39 1
    18    8   13 ar
    19    8    9 ar
    20    9   10 ar
    21   10   11 ar
    22   10   40 1
    23   11   12 ar
    24   11   41 1
    25   12   13 ar
    26   12   42 1
    27   13   14 1
    28   14   15 2
    29   14   16 2
    30   14   17 1
    31   17   18 1
    32   17   43 1
    33   18   19 1
    34   18   44 1
    35   18   45 1
    36   19   20 1
    37   19   26 1
    38   19   21 1
    39   21   22 1
    40   21   30 1
    41   21   46 1
    42   22   23 1
    43   22   24 1
    44   22   29 1
    45   24   25 1
    46   24   26 1
    47   24   27 1
    48   26   47 1
    49   27   28 1
    50   27   48 1
    51   27   49 1
    52   28   50 1
    53   29   51 1
    54   30   52 1
@<TRIPOS>MOLECULE
CHEMBL429079
   46    48     0     0     0
SMALL
USER_CHARGES

@<TRIPOS>ATOM
      1 C1          1.6585    1.0556    0.6315 C.3       1 <0>         0.0281
      2 O1          1.1186   -0.2499    0.4163 O.3       1 <0>        -0.3172
      3 C2          1.1539   -0.7308   -0.8555 C.ar      1 <0>         0.1007
      4 C3          1.7012    0.0347   -1.8720 C.ar      1 <0>        -0.1750
      5 C4          1.7362   -0.4547   -3.1646 C.ar      1 <0>        -0.0913
      6 C5          1.2253   -1.7092   -3.4472 C.ar      1 <0>        -0.0498
      7 C6          0.6777   -2.4796   -2.4375 C.ar      1 <0>        -0.0840
      8 C7          0.6449   -1.9964   -1.1375 C.ar      1 <0>         0.1548
      9 N1          0.0961   -2.7769   -0.1120 N.pl3     1 <0>        -0.6158
     10 C8          0.0600   -4.1521   -0.2347 C.ar      1 <0>         0.6513
     11 N2          0.6546   -4.7433   -1.2666 N.ar      1 <0>        -0.6675
     12 C9          0.6203   -6.0668   -1.3844 C.ar      1 <0>         0.6526
     13 N3         -0.0089   -6.7994   -0.4707 N.ar      1 <0>        -0.6719
     14 C10        -0.6034   -6.2085    0.5610 C.ar      1 <0>         0.6734
     15 N4         -0.5644   -4.8851    0.6818 N.ar      1 <0>        -0.6699
     16 N5         -1.2569   -6.9690    1.5092 N.pl3     1 <0>        -0.5810
     17 C11        -1.3670   -8.4351    1.5046 C.3       1 <0>         0.1247
     18 C12        -2.2030   -8.8358    2.7383 C.3       1 <0>        -0.1341
     19 C13        -2.9947   -7.5401    3.0573 C.3       1 <0>        -0.1352
     20 C14        -1.9549   -6.4464    2.6980 C.3       1 <0>         0.1214
     21 N6          1.2374   -6.6804   -2.4555 N.pl3     1 <0>        -0.6786
     22 C15         1.9304   -5.8731   -3.4627 C.3       1 <0>         0.1357
     23 C16         2.5225   -6.7916   -4.5334 C.3       1 <0>         0.0618
     24 O2          1.4651   -7.4471   -5.2365 O.3       1 <0>        -0.5699
     25 Cl1         1.2714   -2.3173   -5.0726 Cl        1 <0>        -0.0667
     26 H1          2.7097    1.0660    0.3434 H         1 <0>         0.0579
     27 H2          1.1096    1.7796    0.0293 H         1 <0>         0.0583
     28 H3          1.5680    1.3169    1.6858 H         1 <0>         0.1027
     29 H4          2.1004    1.0144   -1.6548 H         1 <0>         0.1414
     30 H5          2.1630    0.1438   -3.9558 H         1 <0>         0.1364
     31 H6          0.2792   -3.4583   -2.6603 H         1 <0>         0.1693
     32 H7         -0.2587   -2.3516    0.6844 H         1 <0>         0.4307
     33 H8         -1.8670   -8.7665    0.5945 H         1 <0>         0.0704
     34 H9         -0.3746   -8.8815    1.5684 H         1 <0>         0.0693
     35 H10        -2.8823   -9.6528    2.4951 H         1 <0>         0.0856
     36 H11        -1.5550   -9.1068    3.5718 H         1 <0>         0.0783
     37 H12        -3.8828   -7.4605    2.4303 H         1 <0>         0.0776
     38 H13        -3.2588   -7.4936    4.1138 H         1 <0>         0.0878
     39 H14        -1.2518   -6.3039    3.5186 H         1 <0>         0.0689
     40 H15        -2.4577   -5.5087    2.4610 H         1 <0>         0.0830
     41 H16         1.2124   -7.6463   -2.5415 H         1 <0>         0.4186
     42 H17         1.2236   -5.1842   -3.9253 H         1 <0>         0.0790
     43 H18         2.7309   -5.3069   -2.9865 H         1 <0>         0.0837
     44 H19         3.1125   -6.2002   -5.2336 H         1 <0>         0.0673
     45 H20         3.1609   -7.5374   -4.0598 H         1 <0>         0.0541
     46 H21         1.7678   -8.0468   -5.9321 H         1 <0>         0.3833
@<TRIPOS>BOND
     1    1    2 1
     2    1   26 1
     3    1   27 1
     4    1   28 1
     5    2    3 1
     6    3    8 ar
     7    3    4 ar
     8    4    5 ar
     9    4   29 1
    10    5    6 ar
    11    5   30 1
    12    6    7 ar
    13    6   25 1
    14    7    8 ar
    15    7   31 1
    16    8    9 1
    17    9   10 1
    18    9   32 1
    19   10   15 ar
    20   10   11 ar
    21   11   12 ar
    22   12   13 ar
    23   12   21 1
    24   13   14 ar
    25   14   15 ar
    26   14   16 1
    27   16   20 1
    28   16   17 1
    29   17   18 1
    30   17   33 1
    31   17   34 1
    32   18   19 1
    33   18   35 1
    34   18   36 1
    35   19   20 1
    36   19   37 1
    37   19   38 1
    38   20   39 1
    39   20   40 1
    40   21   22 1
    41   21   41 1
    42   22   23 1
    43   22   42 1
    44   22   43 1
    45   23   24 1
    46   23   44 1
    47   23   45 1
    48   24   46 1
@<TRIPOS>MOLECULE
CHEMBL35833
   20    21     0     0     0
SMALL
USER_CHARGES

@<TRIPOS>ATOM
      1 C1         -0.0185    1.5102    0.0103 C.3       1 <0>        -0.1418
      2 C2          1.3703    2.1131    0.0003 C.3       1 <0>         0.0780
      3 H1          1.7969    1.9958   -0.9958 H         1 <0>         0.0656
      4 C3          2.2984    1.4702    1.0068 C.3       1 <0>         0.0868
      5 H2          1.8627    1.5711    2.0009 H         1 <0>         0.0745
      6 C4          2.5432    0.0022    0.7281 C.3       1 <0>         0.1342
      7 H3          3.2119   -0.0883   -0.1279 H         1 <0>         0.0783
      8 C5          1.2553   -0.7505    0.4298 C.3       1 <0>         0.0011
      9 H4          1.1183   -1.6823    0.9785 H         1 <0>         0.1436
     10 C6          0.0021   -0.0041    0.0020 C.3       1 <0>         0.0102
     11 H5         -0.9467   -0.4745    0.2601 H         1 <0>         0.1301
     12 O1          0.8028   -0.7128   -0.9333 O.3       1 <0>        -0.3438
     13 O2          3.1692   -0.5881    1.8690 O.3       1 <0>        -0.5531
     14 O3          3.5514    2.1567    0.9821 O.3       1 <0>        -0.5630
     15 O4          1.2690    3.5076    0.2957 O.3       1 <0>        -0.5650
     16 H6         -0.5433    1.8502    0.9031 H         1 <0>         0.1003
     17 H7         -0.5603    1.8597   -0.8685 H         1 <0>         0.0873
     18 H8          4.0199   -0.1907    2.1004 H         1 <0>         0.3949
     19 H9          3.4894    3.0964    1.2017 H         1 <0>         0.3934
     20 H10         0.7307    4.0052   -0.3350 H         1 <0>         0.3883
@<TRIPOS>BOND
     1    1   10 1
     2    1    2 1
     3    1   16 1
     4    1   17 1
     5    2    3 1
     6    2    4 1
     7    2   15 1
     8    4    5 1
     9    4    6 1
    10    4   14 1
    11    6    7 1
    12    6    8 1
    13    6   13 1
    14    8    9 1
    15    8   12 1
    16    8   10 1
    17   10   11 1
    18   10   12 1
    19   13   18 1
    20   14   19 1
    21   15   20 1
@<TRIPOS>MOLECULE
CHEMBL427852
   53    56     0     0     0
SMALL
USER_CHARGES

@<TRIPOS>ATOM
      1 C1          7.7050  -10.7306   -2.1500 C.ar      1 <0>        -0.1178
      2 C2          8.8424  -10.1189   -1.6546 C.ar      1 <0>        -0.1174
      3 C3          8.7758   -8.8346   -1.1537 C.ar      1 <0>        -0.1094
      4 C4          7.5599   -8.1539   -1.1481 C.ar      1 <0>        -0.0409
      5 C5          6.4173   -8.7748   -1.6490 C.ar      1 <0>        -0.1075
      6 C6          6.4954  -10.0596   -2.1470 C.ar      1 <0>        -0.1177
      7 C7          7.4820   -6.7732   -0.6106 C.ar      1 <0>        -0.0366
      8 C8          8.6011   -6.1911   -0.0179 C.ar      1 <0>        -0.1114
      9 C9          8.5293   -4.9066    0.4819 C.ar      1 <0>        -0.1213
     10 C10         7.3445   -4.1918    0.3967 C.ar      1 <0>         0.0790
     11 C11         6.2215   -4.7685   -0.1945 C.ar      1 <0>         0.1465
     12 C12         6.2917   -6.0550   -0.7027 C.ar      1 <0>        -0.0870
     13 N1          5.0246   -4.0456   -0.2792 N.pl3     1 <0>        -0.6222
     14 C13         3.8132   -4.7022   -0.1864 C.ar      1 <0>         0.6523
     15 N2          2.6791   -4.0358   -0.3804 N.ar      1 <0>        -0.6719
     16 C14         1.5132   -4.6679   -0.2914 C.ar      1 <0>         0.6556
     17 N3          1.4810   -5.9665   -0.0080 N.ar      1 <0>        -0.6721
     18 C15         2.6148   -6.6328    0.1859 C.ar      1 <0>         0.6690
     19 N4          3.7811   -6.0018    0.0916 N.ar      1 <0>        -0.6644
     20 N5          2.5813   -7.9807    0.4806 N.pl3     1 <0>        -0.5797
     21 C16         1.3674   -8.8011    0.6031 C.3       1 <0>         0.1247
     22 C17         1.8163  -10.2323    0.9660 C.3       1 <0>        -0.1334
     23 C18         3.2224  -10.0095    1.5829 C.3       1 <0>        -0.1351
     24 C19         3.7570   -8.8377    0.7182 C.3       1 <0>         0.1207
     25 N6          0.3361   -3.9761   -0.4928 N.pl3     1 <0>        -0.6805
     26 C20         0.3644   -2.5254   -0.6951 C.3       1 <0>         0.1379
     27 C21        -1.0680   -1.9928   -0.7690 C.3       1 <0>         0.0614
     28 O1         -1.7108   -2.1779    0.4937 O.3       1 <0>        -0.5706
     29 O2          7.2777   -2.9268    0.8906 O.3       1 <0>        -0.4912
     30 H1          7.7624  -11.7343   -2.5448 H         1 <0>         0.1221
     31 H2          9.7842  -10.6475   -1.6594 H         1 <0>         0.1241
     32 H3          9.6644   -8.3582   -0.7665 H         1 <0>         0.1258
     33 H4          5.4723   -8.2519   -1.6467 H         1 <0>         0.1231
     34 H5          5.6105  -10.5418   -2.5354 H         1 <0>         0.1221
     35 H6          9.5253   -6.7457    0.0505 H         1 <0>         0.1308
     36 H7          9.3977   -4.4575    0.9407 H         1 <0>         0.1355
     37 H8          5.4243   -6.5021   -1.1654 H         1 <0>         0.1440
     38 H9          5.0467   -3.0838   -0.4031 H         1 <0>         0.4250
     39 H10         0.7283   -8.4021    1.3909 H         1 <0>         0.0697
     40 H11         0.8290   -8.8105   -0.3446 H         1 <0>         0.0691
     41 H12         1.1400  -10.6749    1.6973 H         1 <0>         0.0852
     42 H13         1.8810  -10.8542    0.0731 H         1 <0>         0.0782
     43 H14         3.1479   -9.7231    2.6319 H         1 <0>         0.0771
     44 H15         3.8457  -10.8959    1.4648 H         1 <0>         0.0875
     45 H16         4.1522   -9.2102   -0.2269 H         1 <0>         0.0694
     46 H17         4.5251   -8.2863    1.2605 H         1 <0>         0.0823
     47 H18        -0.5100   -4.4505   -0.5004 H         1 <0>         0.4178
     48 H19         0.8853   -2.0526    0.1375 H         1 <0>         0.0782
     49 H20         0.8849   -2.2984   -1.6254 H         1 <0>         0.0828
     50 H21        -1.0486   -0.9310   -1.0146 H         1 <0>         0.0672
     51 H22        -1.6175   -2.5339   -1.5393 H         1 <0>         0.0541
     52 H23        -2.6245   -1.8622    0.5200 H         1 <0>         0.3835
     53 H24         7.5077   -2.2412    0.2486 H         1 <0>         0.3862
@<TRIPOS>BOND
     1    1    6 ar
     2    1    2 ar
     3    1   30 1
     4    2    3 ar
     5    2   31 1
     6    3    4 ar
     7    3   32 1
     8    4    5 ar
     9    4    7 1
    10    5    6 ar
    11    5   33 1
    12    6   34 1
    13    7   12 ar
    14    7    8 ar
    15    8    9 ar
    16    8   35 1
    17    9   10 ar
    18    9   36 1
    19   10   11 ar
    20   10   29 1
    21   11   12 ar
    22   11   13 1
    23   12   37 1
    24   13   14 1
    25   13   38 1
    26   14   19 ar
    27   14   15 ar
    28   15   16 ar
    29   16   17 ar
    30   16   25 1
    31   17   18 ar
    32   18   19 ar
    33   18   20 1
    34   20   24 1
    35   20   21 1
    36   21   22 1
    37   21   39 1
    38   21   40 1
    39   22   23 1
    40   22   41 1
    41   22   42 1
    42   23   24 1
    43   23   43 1
    44   23   44 1
    45   24   45 1
    46   24   46 1
    47   25   26 1
    48   25   47 1
    49   26   27 1
    50   26   48 1
    51   26   49 1
    52   27   28 1
    53   27   50 1
    54   27   51 1
    55   28   52 1
    56   29   53 1
@<TRIPOS>MOLECULE
CHEMBL237560
   49    51     0     0     0
SMALL
USER_CHARGES

@<TRIPOS>ATOM
      1 C1          2.2262    1.0344   -0.8866 C.3       1 <0>        -0.1535
      2 C2          1.6631   -0.3700   -0.6598 C.3       1 <0>         0.0559
      3 O1          1.7999   -0.7211    0.7187 O.3       1 <0>        -0.3161
      4 C3          1.3449   -1.9474    1.0916 C.ar      1 <0>         0.1045
      5 C4          0.7848   -2.7955    0.1505 C.ar      1 <0>        -0.1760
      6 C5          0.3221   -4.0417    0.5306 C.ar      1 <0>        -0.0909
      7 C6          0.4167   -4.4457    1.8506 C.ar      1 <0>        -0.0504
      8 C7          0.9751   -3.6046    2.7959 C.ar      1 <0>        -0.0836
      9 C8          1.4464   -2.3553    2.4197 C.ar      1 <0>         0.1540
     10 N1          2.0178   -1.5038    3.3740 N.pl3     1 <0>        -0.6155
     11 C9          2.5816   -2.0301    4.5196 C.ar      1 <0>         0.6514
     12 N2          2.6929   -3.3474    4.6611 N.ar      1 <0>        -0.6674
     13 C10         3.2360   -3.8539    5.7635 C.ar      1 <0>         0.6525
     14 N3          3.6675   -3.0432    6.7249 N.ar      1 <0>        -0.6719
     15 C11         3.5563   -1.7262    6.5834 C.ar      1 <0>         0.6733
     16 N4          3.0181   -1.2194    5.4785 N.ar      1 <0>        -0.6700
     17 N5          4.0039   -0.8847    7.5816 N.pl3     1 <0>        -0.5812
     18 C12         4.6267   -1.3084    8.8442 C.3       1 <0>         0.1247
     19 C13         4.9375   -0.0313    9.6530 C.3       1 <0>        -0.1341
     20 C14         3.9586    1.0097    9.0484 C.3       1 <0>        -0.1352
     21 C15         3.9425    0.5880    7.5556 C.3       1 <0>         0.1215
     22 N6          3.3515   -5.2213    5.9104 N.pl3     1 <0>        -0.6786
     23 C16         2.8755   -6.1146    4.8513 C.3       1 <0>         0.1357
     24 C17         3.1198   -7.5681    5.2620 C.3       1 <0>         0.0618
     25 O2          2.3228   -7.8801    6.4063 O.3       1 <0>        -0.5699
     26 Cl1        -0.1673   -6.0113    2.3214 Cl        1 <0>        -0.0670
     27 H1          3.2804    1.0522   -0.6100 H         1 <0>         0.0667
     28 H2          2.1219    1.3022   -1.9381 H         1 <0>         0.0802
     29 H3          1.6776    1.7493   -0.2734 H         1 <0>         0.0673
     30 H4          0.6089   -0.3878   -0.9363 H         1 <0>         0.0646
     31 H5          2.2118   -1.0849   -1.2730 H         1 <0>         0.0642
     32 H6          0.7091   -2.4830   -0.8805 H         1 <0>         0.1406
     33 H7         -0.1147   -4.7014   -0.2046 H         1 <0>         0.1363
     34 H8          1.0477   -3.9218    3.8257 H         1 <0>         0.1692
     35 H9          2.0174   -0.5445    3.2302 H         1 <0>         0.4306
     36 H10         3.9382   -1.9425    9.4027 H         1 <0>         0.0704
     37 H11         5.5496   -1.8508    8.6387 H         1 <0>         0.0692
     38 H12         4.7307   -0.1856   10.7120 H         1 <0>         0.0856
     39 H13         5.9716    0.2786    9.5021 H         1 <0>         0.0783
     40 H14         2.9680    0.9193    9.4941 H         1 <0>         0.0776
     41 H15         4.3457    2.0222    9.1625 H         1 <0>         0.0877
     42 H16         4.8094    0.9947    7.0348 H         1 <0>         0.0688
     43 H17         3.0211    0.9209    7.0778 H         1 <0>         0.0829
     44 H18         3.7478   -5.5909    6.7149 H         1 <0>         0.4185
     45 H19         1.8086   -5.9558    4.6943 H         1 <0>         0.0789
     46 H20         3.4142   -5.9026    3.9278 H         1 <0>         0.0836
     47 H21         2.8480   -8.2288    4.4388 H         1 <0>         0.0673
     48 H22         4.1736   -7.7048    5.5049 H         1 <0>         0.0541
     49 H23         2.4272   -8.7879    6.7226 H         1 <0>         0.3833
@<TRIPOS>BOND
     1    1    2 1
     2    1   27 1
     3    1   28 1
     4    1   29 1
     5    2    3 1
     6    2   30 1
     7    2   31 1
     8    3    4 1
     9    4    9 ar
    10    4    5 ar
    11    5    6 ar
    12    5   32 1
    13    6    7 ar
    14    6   33 1
    15    7    8 ar
    16    7   26 1
    17    8    9 ar
    18    8   34 1
    19    9   10 1
    20   10   11 1
    21   10   35 1
    22   11   16 ar
    23   11   12 ar
    24   12   13 ar
    25   13   14 ar
    26   13   22 1
    27   14   15 ar
    28   15   16 ar
    29   15   17 1
    30   17   21 1
    31   17   18 1
    32   18   19 1
    33   18   36 1
    34   18   37 1
    35   19   20 1
    36   19   38 1
    37   19   39 1
    38   20   21 1
    39   20   40 1
    40   20   41 1
    41   21   42 1
    42   21   43 1
    43   22   23 1
    44   22   44 1
    45   23   24 1
    46   23   45 1
    47   23   46 1
    48   24   25 1
    49   24   47 1
    50   24   48 1
    51   25   49 1
@<TRIPOS>MOLECULE
CHEMBL407994
   44    46     0     0     0
SMALL
USER_CHARGES

@<TRIPOS>ATOM
      1 C1         -0.0155    1.3564    0.0722 C.ar      1 <0>        -0.1090
      2 C2          1.1693    2.0889    0.0653 C.ar      1 <0>        -0.1011
      3 C3          2.3793    1.4635    0.0297 C.ar      1 <0>        -0.1268
      4 C4          2.4364    0.0636    0.0002 C.ar      1 <0>        -0.0088
      5 C5          1.2333   -0.6832    0.0076 C.ar      1 <0>        -0.0617
      6 C6          0.0027   -0.0046    0.0441 C.ar      1 <0>        -0.1050
      7 C7          1.2892   -2.0873   -0.0215 C.ar      1 <0>        -0.0542
      8 C8          2.4941   -2.7233   -0.0567 C.ar      1 <0>        -0.1407
      9 C9          3.6848   -2.0081   -0.0641 C.ar      1 <0>        -0.0673
     10 C10         3.6769   -0.6212   -0.0366 C.ar      1 <0>        -0.1417
     11 C11         4.9445    0.1320   -0.0456 C.2       1 <0>         0.5750
     12 O1          4.9305    1.3449   -0.1316 O.2       1 <0>        -0.5049
     13 N1          6.1188   -0.5238    0.0415 N.am      1 <0>        -0.7537
     14 C12         7.3782    0.2246    0.0325 C.3       1 <0>         0.1020
     15 C13         8.5518   -0.7509    0.1421 C.3       1 <0>         0.0256
     16 H1          8.5335   -1.2451    1.1134 H         1 <0>         0.1615
     17 C14         9.8836    0.0081   -0.0357 C.3       1 <0>         0.0685
     18 C15        10.7443   -0.9848   -0.8604 C.3       1 <0>         0.0604
     19 H2         11.4975   -0.4564   -1.4450 H         1 <0>         0.1147
     20 C16         9.6799   -1.6314   -1.7815 C.3       1 <0>         0.0367
     21 H3          9.4792   -0.9889   -2.6388 H         1 <0>         0.1682
     22 N2          8.4709   -1.7559   -0.9337 N.4       1 <0>        -0.5101
     23 C17        10.1474   -3.0111   -2.2490 C.3       1 <0>         0.0604
     24 O2         10.4982   -3.8051   -1.1138 O.3       1 <0>        -0.5504
     25 O3         11.3511   -1.9625   -0.0130 O.3       1 <0>        -0.5130
     26 O4         10.4892    0.2697    1.2319 O.3       1 <0>        -0.5368
     27 H4         -0.9620    1.8754    0.1048 H         1 <0>         0.1300
     28 H5          1.1282    3.1679    0.0880 H         1 <0>         0.1290
     29 H6          3.2901    2.0439    0.0240 H         1 <0>         0.1654
     30 H7         -0.9235   -0.5600    0.0502 H         1 <0>         0.1341
     31 H8          0.3756   -2.6633   -0.0157 H         1 <0>         0.1376
     32 H9          2.5236   -3.8027   -0.0788 H         1 <0>         0.1341
     33 H10         4.6260   -2.5370   -0.0919 H         1 <0>         0.1182
     34 H11         6.1300   -1.4913    0.1100 H         1 <0>         0.3962
     35 H12         7.4595    0.7879   -0.8971 H         1 <0>         0.0994
     36 H13         7.3977    0.9129    0.8774 H         1 <0>         0.1215
     37 H14         9.7283    0.9347   -0.5883 H         1 <0>         0.1098
     38 H15         8.4289   -2.6805   -0.5321 H         1 <0>         0.4420
     39 H16         9.3437   -3.4998   -2.7997 H         1 <0>         0.0716
     40 H17        11.0167   -2.8998   -2.8972 H         1 <0>         0.0945
     41 H18        10.8044   -4.6951   -1.3358 H         1 <0>         0.4011
     42 H19        11.9537   -1.5920    0.6463 H         1 <0>         0.3938
     43 H20        11.3294    0.7451    1.1758 H         1 <0>         0.4060
     44 H21         7.6460   -1.5912   -1.4909 H         1 <0>         0.4277
@<TRIPOS>BOND
     1    1    6 ar
     2    1    2 ar
     3    1   27 1
     4    2    3 ar
     5    2   28 1
     6    3    4 ar
     7    3   29 1
     8    4   10 ar
     9    4    5 ar
    10    5    6 ar
    11    5    7 ar
    12    6   30 1
    13    7    8 ar
    14    7   31 1
    15    8    9 ar
    16    8   32 1
    17    9   10 ar
    18    9   33 1
    19   10   11 1
    20   11   12 2
    21   11   13 am
    22   13   14 1
    23   13   34 1
    24   14   15 1
    25   14   35 1
    26   14   36 1
    27   15   16 1
    28   15   22 1
    29   15   17 1
    30   17   18 1
    31   17   26 1
    32   17   37 1
    33   18   19 1
    34   18   20 1
    35   18   25 1
    36   20   21 1
    37   20   22 1
    38   20   23 1
    39   22   38 1
    40   22   44 1
    41   23   24 1
    42   23   39 1
    43   23   40 1
    44   24   41 1
    45   25   42 1
    46   26   43 1
@<TRIPOS>MOLECULE
CHEMBL407994__1
   43    45     0     0     0
SMALL
USER_CHARGES

@<TRIPOS>ATOM
      1 C1         -0.0155    1.3564    0.0722 C.ar      1 <0>        -0.1131
      2 C2          1.1693    2.0889    0.0653 C.ar      1 <0>        -0.1163
      3 C3          2.3793    1.4635    0.0297 C.ar      1 <0>        -0.1153
      4 C4          2.4364    0.0636    0.0002 C.ar      1 <0>        -0.0131
      5 C5          1.2333   -0.6832    0.0076 C.ar      1 <0>        -0.0610
      6 C6          0.0027   -0.0046    0.0441 C.ar      1 <0>        -0.1115
      7 C7          1.2892   -2.0873   -0.0215 C.ar      1 <0>        -0.0742
      8 C8          2.4941   -2.7233   -0.0567 C.ar      1 <0>        -0.1308
      9 C9          3.6848   -2.0081   -0.0641 C.ar      1 <0>        -0.0707
     10 C10         3.6769   -0.6212   -0.0366 C.ar      1 <0>        -0.1253
     11 C11         4.9445    0.1320   -0.0456 C.2       1 <0>         0.5630
     12 O1          4.9305    1.3449   -0.1316 O.2       1 <0>        -0.5351
     13 N1          6.1188   -0.5238    0.0415 N.am      1 <0>        -0.7105
     14 C12         7.3782    0.2246    0.0325 C.3       1 <0>         0.1393
     15 C13         8.5518   -0.7509    0.1421 C.3       1 <0>         0.0722
     16 H1          8.5193   -1.2633    1.1036 H         1 <0>         0.0848
     17 C14         9.8848    0.0135   -0.0006 C.3       1 <0>         0.0625
     18 C15        10.7601   -0.9624   -0.8302 C.3       1 <0>         0.0430
     19 H2         11.5213   -0.4219   -1.3930 H         1 <0>         0.0782
     20 C16         9.7114   -1.5933   -1.7798 C.3       1 <0>         0.0913
     21 H3          9.5229   -0.9351   -2.6279 H         1 <0>         0.1106
     22 N2          8.4896   -1.7356   -0.9535 N.3       1 <0>        -0.6576
     23 C17        10.1888   -2.9633   -2.2657 C.3       1 <0>         0.0803
     24 O2          9.2651   -3.4757   -3.2282 O.3       1 <0>        -0.5670
     25 O3         11.3554   -1.9548    0.0080 O.3       1 <0>        -0.5485
     26 O4         10.4701    0.2522    1.2810 O.3       1 <0>        -0.5510
     27 H4         -0.9620    1.8754    0.1048 H         1 <0>         0.1237
     28 H5          1.1282    3.1679    0.0880 H         1 <0>         0.1242
     29 H6          3.2901    2.0439    0.0240 H         1 <0>         0.1688
     30 H7         -0.9235   -0.5600    0.0502 H         1 <0>         0.1284
     31 H8          0.3756   -2.6633   -0.0157 H         1 <0>         0.1317
     32 H9          2.5236   -3.8027   -0.0788 H         1 <0>         0.1309
     33 H10         4.6260   -2.5370   -0.0919 H         1 <0>         0.1276
     34 H11         6.1300   -1.4913    0.1100 H         1 <0>         0.4020
     35 H12         7.4595    0.7879   -0.8971 H         1 <0>         0.0724
     36 H13         7.3977    0.9129    0.8774 H         1 <0>         0.0744
     37 H14         9.7364    0.9500   -0.5381 H         1 <0>         0.0844
     38 H15         8.4020   -2.6736   -0.5921 H         1 <0>         0.3490
     39 H16        11.1728   -2.8637   -2.7238 H         1 <0>         0.0534
     40 H17        10.2493   -3.6480   -1.4198 H         1 <0>         0.0564
     41 H18         9.5051   -4.3437   -3.5803 H         1 <0>         0.3814
     42 H19        11.9470   -1.5958    0.6835 H         1 <0>         0.3839
     43 H20        11.3101    0.7299    1.2469 H         1 <0>         0.3831
@<TRIPOS>BOND
     1    1    6 ar
     2    1    2 ar
     3    1   27 1
     4    2    3 ar
     5    2   28 1
     6    3    4 ar
     7    3   29 1
     8    4   10 ar
     9    4    5 ar
    10    5    6 ar
    11    5    7 ar
    12    6   30 1
    13    7    8 ar
    14    7   31 1
    15    8    9 ar
    16    8   32 1
    17    9   10 ar
    18    9   33 1
    19   10   11 1
    20   11   12 2
    21   11   13 am
    22   13   14 1
    23   13   34 1
    24   14   15 1
    25   14   35 1
    26   14   36 1
    27   15   16 1
    28   15   22 1
    29   15   17 1
    30   17   18 1
    31   17   26 1
    32   17   37 1
    33   18   19 1
    34   18   20 1
    35   18   25 1
    36   20   21 1
    37   20   22 1
    38   20   23 1
    39   22   38 1
    40   23   24 1
    41   23   39 1
    42   23   40 1
    43   24   41 1
    44   25   42 1
    45   26   43 1
@<TRIPOS>MOLECULE
CHEMBL407994__2
   44    46     0     0     0
SMALL
USER_CHARGES

@<TRIPOS>ATOM
      1 C1         -0.0155    1.3564    0.0722 C.ar      1 <0>        -0.1088
      2 C2          1.1693    2.0889    0.0653 C.ar      1 <0>        -0.1018
      3 C3          2.3793    1.4635    0.0297 C.ar      1 <0>        -0.1262
      4 C4          2.4364    0.0636    0.0002 C.ar      1 <0>        -0.0093
      5 C5          1.2333   -0.6832    0.0076 C.ar      1 <0>        -0.0615
      6 C6          0.0027   -0.0046    0.0441 C.ar      1 <0>        -0.1056
      7 C7          1.2892   -2.0873   -0.0215 C.ar      1 <0>        -0.0553
      8 C8          2.4941   -2.7233   -0.0567 C.ar      1 <0>        -0.1404
      9 C9          3.6848   -2.0081   -0.0641 C.ar      1 <0>        -0.0686
     10 C10         3.6769   -0.6212   -0.0366 C.ar      1 <0>        -0.1404
     11 C11         4.9445    0.1320   -0.0456 C.2       1 <0>         0.5739
     12 O1          4.9305    1.3449   -0.1316 O.2       1 <0>        -0.5037
     13 N1          6.1188   -0.5238    0.0415 N.am      1 <0>        -0.7558
     14 C12         7.3782    0.2246    0.0325 C.3       1 <0>         0.1062
     15 C13         8.5518   -0.7509    0.1421 C.3       1 <0>         0.0303
     16 H1          8.5335   -1.2451    1.1134 H         1 <0>         0.1603
     17 C14         9.8836    0.0081   -0.0357 C.3       1 <0>         0.0661
     18 C15        10.7443   -0.9848   -0.8604 C.3       1 <0>         0.0647
     19 H2         11.4975   -0.4564   -1.4450 H         1 <0>         0.1144
     20 C16         9.6799   -1.6314   -1.7815 C.3       1 <0>         0.0421
     21 H3          9.4792   -0.9889   -2.6388 H         1 <0>         0.1673
     22 N2          8.4709   -1.7559   -0.9337 N.4       1 <0>        -0.5128
     23 C17        10.1474   -3.0111   -2.2490 C.3       1 <0>         0.0596
     24 O2         10.4982   -3.8051   -1.1138 O.3       1 <0>        -0.5518
     25 O3         11.3511   -1.9625   -0.0130 O.3       1 <0>        -0.5179
     26 O4          9.6800    1.2229   -0.7602 O.3       1 <0>        -0.5458
     27 H4         -0.9620    1.8754    0.1048 H         1 <0>         0.1298
     28 H5          1.1282    3.1679    0.0880 H         1 <0>         0.1289
     29 H6          3.2901    2.0439    0.0240 H         1 <0>         0.1657
     30 H7         -0.9235   -0.5600    0.0502 H         1 <0>         0.1339
     31 H8          0.3756   -2.6633   -0.0157 H         1 <0>         0.1373
     32 H9          2.5236   -3.8027   -0.0788 H         1 <0>         0.1337
     33 H10         4.6260   -2.5370   -0.0919 H         1 <0>         0.1179
     34 H11         6.1300   -1.4913    0.1100 H         1 <0>         0.3938
     35 H12         7.4595    0.7879   -0.8971 H         1 <0>         0.1113
     36 H13         7.3977    0.9129    0.8774 H         1 <0>         0.1167
     37 H14        10.3456    0.2077    0.9312 H         1 <0>         0.1171
     38 H15         8.4289   -2.6805   -0.5321 H         1 <0>         0.4392
     39 H16         9.3437   -3.4998   -2.7997 H         1 <0>         0.0710
     40 H17        11.0167   -2.8998   -2.8972 H         1 <0>         0.0938
     41 H18        10.8044   -4.6951   -1.3358 H         1 <0>         0.4010
     42 H19        11.9537   -1.5920    0.6463 H         1 <0>         0.3944
     43 H20        10.4866    1.7379   -0.8991 H         1 <0>         0.4075
     44 H21         7.6460   -1.5912   -1.4909 H         1 <0>         0.4274
@<TRIPOS>BOND
     1    1    6 ar
     2    1    2 ar
     3    1   27 1
     4    2    3 ar
     5    2   28 1
     6    3    4 ar
     7    3   29 1
     8    4   10 ar
     9    4    5 ar
    10    5    6 ar
    11    5    7 ar
    12    6   30 1
    13    7    8 ar
    14    7   31 1
    15    8    9 ar
    16    8   32 1
    17    9   10 ar
    18    9   33 1
    19   10   11 1
    20   11   12 2
    21   11   13 am
    22   13   14 1
    23   13   34 1
    24   14   15 1
    25   14   35 1
    26   14   36 1
    27   15   16 1
    28   15   22 1
    29   15   17 1
    30   17   18 1
    31   17   26 1
    32   17   37 1
    33   18   19 1
    34   18   20 1
    35   18   25 1
    36   20   21 1
    37   20   22 1
    38   20   23 1
    39   22   38 1
    40   22   44 1
    41   23   24 1
    42   23   39 1
    43   23   40 1
    44   24   41 1
    45   25   42 1
    46   26   43 1
@<TRIPOS>MOLECULE
CHEMBL407994__3
   43    45     0     0     0
SMALL
USER_CHARGES

@<TRIPOS>ATOM
      1 C1         -0.0155    1.3564    0.0722 C.ar      1 <0>        -0.1129
      2 C2          1.1693    2.0889    0.0653 C.ar      1 <0>        -0.1170
      3 C3          2.3793    1.4635    0.0297 C.ar      1 <0>        -0.1146
      4 C4          2.4364    0.0636    0.0002 C.ar      1 <0>        -0.0137
      5 C5          1.2333   -0.6832    0.0076 C.ar      1 <0>        -0.0608
      6 C6          0.0027   -0.0046    0.0441 C.ar      1 <0>        -0.1121
      7 C7          1.2892   -2.0873   -0.0215 C.ar      1 <0>        -0.0754
      8 C8          2.4941   -2.7233   -0.0567 C.ar      1 <0>        -0.1305
      9 C9          3.6848   -2.0081   -0.0641 C.ar      1 <0>        -0.0721
     10 C10         3.6769   -0.6212   -0.0366 C.ar      1 <0>        -0.1239
     11 C11         4.9445    0.1320   -0.0456 C.2       1 <0>         0.5615
     12 O1          4.9305    1.3449   -0.1316 O.2       1 <0>        -0.5340
     13 N1          6.1188   -0.5238    0.0415 N.am      1 <0>        -0.7126
     14 C12         7.3782    0.2246    0.0325 C.3       1 <0>         0.1447
     15 C13         8.5518   -0.7509    0.1421 C.3       1 <0>         0.0743
     16 H1          8.5193   -1.2633    1.1036 H         1 <0>         0.0806
     17 C14         9.8848    0.0135   -0.0006 C.3       1 <0>         0.0654
     18 C15        10.7601   -0.9624   -0.8302 C.3       1 <0>         0.0429
     19 H2         11.5213   -0.4219   -1.3930 H         1 <0>         0.0792
     20 C16         9.7114   -1.5933   -1.7798 C.3       1 <0>         0.0985
     21 H3          9.5229   -0.9351   -2.6279 H         1 <0>         0.1109
     22 N2          8.4896   -1.7356   -0.9535 N.3       1 <0>        -0.6599
     23 C17        10.1888   -2.9633   -2.2657 C.3       1 <0>         0.0787
     24 O2          9.2651   -3.4757   -3.2282 O.3       1 <0>        -0.5663
     25 O3         11.3554   -1.9548    0.0080 O.3       1 <0>        -0.5534
     26 O4          9.6902    1.2413   -0.7053 O.3       1 <0>        -0.5419
     27 H4         -0.9620    1.8754    0.1048 H         1 <0>         0.1235
     28 H5          1.1282    3.1679    0.0880 H         1 <0>         0.1241
     29 H6          3.2901    2.0439    0.0240 H         1 <0>         0.1692
     30 H7         -0.9235   -0.5600    0.0502 H         1 <0>         0.1282
     31 H8          0.3756   -2.6633   -0.0157 H         1 <0>         0.1314
     32 H9          2.5236   -3.8027   -0.0788 H         1 <0>         0.1305
     33 H10         4.6260   -2.5370   -0.0919 H         1 <0>         0.1273
     34 H11         6.1300   -1.4913    0.1100 H         1 <0>         0.3997
     35 H12         7.4595    0.7879   -0.8971 H         1 <0>         0.0858
     36 H13         7.3977    0.9129    0.8774 H         1 <0>         0.0688
     37 H14        10.3312    0.1955    0.9770 H         1 <0>         0.0767
     38 H15         8.4020   -2.6736   -0.5921 H         1 <0>         0.3454
     39 H16        11.1728   -2.8637   -2.7238 H         1 <0>         0.0523
     40 H17        10.2493   -3.6480   -1.4198 H         1 <0>         0.0551
     41 H18         9.5051   -4.3437   -3.5803 H         1 <0>         0.3806
     42 H19        11.9470   -1.5958    0.6835 H         1 <0>         0.3838
     43 H20        10.4979    1.7601   -0.8219 H         1 <0>         0.3824
@<TRIPOS>BOND
     1    1    6 ar
     2    1    2 ar
     3    1   27 1
     4    2    3 ar
     5    2   28 1
     6    3    4 ar
     7    3   29 1
     8    4   10 ar
     9    4    5 ar
    10    5    6 ar
    11    5    7 ar
    12    6   30 1
    13    7    8 ar
    14    7   31 1
    15    8    9 ar
    16    8   32 1
    17    9   10 ar
    18    9   33 1
    19   10   11 1
    20   11   12 2
    21   11   13 am
    22   13   14 1
    23   13   34 1
    24   14   15 1
    25   14   35 1
    26   14   36 1
    27   15   16 1
    28   15   22 1
    29   15   17 1
    30   17   18 1
    31   17   26 1
    32   17   37 1
    33   18   19 1
    34   18   20 1
    35   18   25 1
    36   20   21 1
    37   20   22 1
    38   20   23 1
    39   22   38 1
    40   23   24 1
    41   23   39 1
    42   23   40 1
    43   24   41 1
    44   25   42 1
    45   26   43 1
@<TRIPOS>MOLECULE
CHEMBL1085393
   62    63     0     0     0
SMALL
USER_CHARGES

@<TRIPOS>ATOM
      1 C1         -0.0187    1.5258    0.0104 C.3       1 <0>        -0.1552
      2 C2          0.0021   -0.0041    0.0020 C.3       1 <0>        -0.1264
      3 C3         -1.4333   -0.5336    0.0129 C.3       1 <0>        -0.1213
      4 C4         -1.4126   -2.0635    0.0045 C.3       1 <0>        -0.1218
      5 C5         -2.8479   -2.5931    0.0153 C.3       1 <0>        -0.1206
      6 C6         -2.8272   -4.1229    0.0069 C.3       1 <0>        -0.1201
      7 C7         -4.2626   -4.6525    0.0178 C.3       1 <0>        -0.1171
      8 C8         -4.2418   -6.1823    0.0094 C.3       1 <0>        -0.1351
      9 C9         -5.6772   -6.7119    0.0202 C.3       1 <0>         0.1052
     10 N1         -5.6573   -8.1767    0.0122 N.pl3     1 <0>        -0.2754
     11 C10        -6.2713   -8.9829    0.9089 C.2       1 <0>        -0.0023
     12 C11        -5.9942  -10.2515    0.5271 C.2       1 <0>        -0.1044
     13 N2         -5.2342  -10.1606   -0.5700 N.2       1 <0>        -0.2409
     14 N3         -5.0575   -8.9181   -0.8523 N.2       1 <0>        -0.0494
     15 C12        -6.4514  -11.5174    1.2049 C.3       1 <0>         0.0952
     16 N4         -7.6757  -12.0055    0.5563 N.4       1 <0>        -0.5019
     17 C13        -8.1214  -13.2395    1.2170 C.3       1 <0>         0.0549
     18 C14        -7.0810  -14.3397    0.9978 C.3       1 <0>         0.1011
     19 H1         -6.1262  -14.0262    1.4197 H         1 <0>         0.0944
     20 C15        -7.5452  -15.6250    1.6860 C.3       1 <0>         0.0948
     21 H2         -6.8041  -16.4088    1.5298 H         1 <0>         0.0822
     22 C16        -8.8855  -16.0651    1.0938 C.3       1 <0>         0.0393
     23 C17        -9.9259  -14.9649    1.3130 C.3       1 <0>         0.0543
     24 H3        -10.8808  -15.2785    0.8911 H         1 <0>         0.0768
     25 C18        -9.4617  -13.6797    0.6248 C.3       1 <0>         0.1020
     26 H4        -10.2029  -12.8958    0.7810 H         1 <0>         0.0904
     27 O1         -9.3084  -13.9180   -0.7758 O.3       1 <0>        -0.5392
     28 O2        -10.0793  -14.7266    2.7136 O.3       1 <0>        -0.5442
     29 O3         -9.3191  -17.2655    1.7366 O.3       1 <0>        -0.5608
     30 O4         -7.6986  -15.3867    3.0866 O.3       1 <0>        -0.5473
     31 O5         -6.9277  -14.5780   -0.4028 O.3       1 <0>        -0.5385
     32 H5          1.0039    1.9031    0.0027 H         1 <0>         0.0550
     33 H6         -0.5459    1.8868   -0.8726 H         1 <0>         0.0539
     34 H7         -0.5289    1.8773    0.9072 H         1 <0>         0.0537
     35 H8          0.5123   -0.3556   -0.8948 H         1 <0>         0.0608
     36 H9          0.5293   -0.3651    0.8851 H         1 <0>         0.0604
     37 H10        -1.9435   -0.1821    0.9097 H         1 <0>         0.0609
     38 H11        -1.9605   -0.1726   -0.8702 H         1 <0>         0.0613
     39 H12        -0.9024   -2.4150   -0.8923 H         1 <0>         0.0618
     40 H13        -0.8854   -2.4246    0.8875 H         1 <0>         0.0611
     41 H14        -3.3581   -2.2415    0.9121 H         1 <0>         0.0621
     42 H15        -3.3751   -2.2320   -0.8677 H         1 <0>         0.0629
     43 H16        -2.3170   -4.4744   -0.8899 H         1 <0>         0.0653
     44 H17        -2.3000   -4.4840    0.8900 H         1 <0>         0.0633
     45 H18        -4.7728   -4.3010    0.9146 H         1 <0>         0.0686
     46 H19        -4.7898   -4.2914   -0.8653 H         1 <0>         0.0709
     47 H20        -3.7316   -6.5338   -0.8874 H         1 <0>         0.0855
     48 H21        -3.7146   -6.5434    0.8924 H         1 <0>         0.0739
     49 H22        -6.1874   -6.3604    0.9170 H         1 <0>         0.1153
     50 H23        -6.2044   -6.3508   -0.8628 H         1 <0>         0.1116
     51 H24        -6.8632   -8.6759    1.7585 H         1 <0>         0.2027
     52 H25        -5.6713  -12.2745    1.1250 H         1 <0>         0.1461
     53 H26        -6.6537  -11.3139    2.2565 H         1 <0>         0.1491
     54 H27        -8.3979  -11.3047    0.6303 H         1 <0>         0.4253
     55 H28        -8.2384  -13.0577    2.2854 H         1 <0>         0.1770
     56 H29        -8.7686  -16.2469    0.0255 H         1 <0>         0.0906
     57 H30       -10.1205  -14.2010   -1.2178 H         1 <0>         0.3997
     58 H31       -10.3722  -15.5002    3.2145 H         1 <0>         0.3954
     59 H32       -10.1645  -17.6031    1.4103 H         1 <0>         0.3926
     60 H33        -7.9915  -16.1602    3.5875 H         1 <0>         0.3986
     61 H34        -6.2819  -15.2653   -0.6164 H         1 <0>         0.4021
     62 H35        -7.4885  -12.1940   -0.4171 H         1 <0>         0.4436
@<TRIPOS>BOND
     1    1    2 1
     2    1   32 1
     3    1   33 1
     4    1   34 1
     5    2    3 1
     6    2   35 1
     7    2   36 1
     8    3    4 1
     9    3   37 1
    10    3   38 1
    11    4    5 1
    12    4   39 1
    13    4   40 1
    14    5    6 1
    15    5   41 1
    16    5   42 1
    17    6    7 1
    18    6   43 1
    19    6   44 1
    20    7    8 1
    21    7   45 1
    22    7   46 1
    23    8    9 1
    24    8   47 1
    25    8   48 1
    26    9   10 1
    27    9   49 1
    28    9   50 1
    29   10   14 1
    30   10   11 1
    31   11   12 2
    32   11   51 1
    33   12   13 1
    34   12   15 1
    35   13   14 2
    36   15   16 1
    37   15   52 1
    38   15   53 1
    39   16   17 1
    40   16   54 1
    41   16   62 1
    42   17   25 1
    43   17   18 1
    44   17   55 1
    45   18   19 1
    46   18   20 1
    47   18   31 1
    48   20   21 1
    49   20   22 1
    50   20   30 1
    51   22   23 1
    52   22   29 1
    53   22   56 1
    54   23   24 1
    55   23   25 1
    56   23   28 1
    57   25   26 1
    58   25   27 1
    59   27   57 1
    60   28   58 1
    61   29   59 1
    62   30   60 1
    63   31   61 1
@<TRIPOS>MOLECULE
CHEMBL1085393__1
   61    62     0     0     0
SMALL
USER_CHARGES

@<TRIPOS>ATOM
      1 C1         -0.0187    1.5258    0.0104 C.3       1 <0>        -0.1543
      2 C2          0.0021   -0.0041    0.0020 C.3       1 <0>        -0.1264
      3 C3         -1.4333   -0.5336    0.0129 C.3       1 <0>        -0.1210
      4 C4         -1.4126   -2.0635    0.0045 C.3       1 <0>        -0.1218
      5 C5         -2.8479   -2.5931    0.0153 C.3       1 <0>        -0.1200
      6 C6         -2.8272   -4.1229    0.0069 C.3       1 <0>        -0.1199
      7 C7         -4.2626   -4.6525    0.0178 C.3       1 <0>        -0.1163
      8 C8         -4.2418   -6.1823    0.0094 C.3       1 <0>        -0.1332
      9 C9         -5.6772   -6.7119    0.0202 C.3       1 <0>         0.1145
     10 N1         -5.6573   -8.1767    0.0122 N.pl3     1 <0>        -0.2904
     11 C10        -6.2713   -8.9829    0.9089 C.2       1 <0>        -0.0486
     12 C11        -5.9942  -10.2515    0.5271 C.2       1 <0>        -0.0138
     13 N2         -5.2342  -10.1606   -0.5700 N.2       1 <0>        -0.2473
     14 N3         -5.0575   -8.9181   -0.8523 N.2       1 <0>        -0.0827
     15 C12        -6.4514  -11.5174    1.2049 C.3       1 <0>         0.1442
     16 N4         -7.6757  -12.0055    0.5563 N.3       1 <0>        -0.6599
     17 C13        -8.1517  -13.2412    1.1922 C.3       1 <0>         0.1153
     18 C14        -7.4272  -14.4417    0.5799 C.3       1 <0>         0.1309
     19 H1         -6.3541  -14.3397    0.7418 H         1 <0>         0.0655
     20 C15        -7.9229  -15.7287    1.2422 C.3       1 <0>         0.0900
     21 H2         -7.4068  -16.5839    0.8059 H         1 <0>         0.0612
     22 C16        -9.4292  -15.8718    1.0149 C.3       1 <0>         0.0438
     23 C17       -10.1536  -14.6714    1.6273 C.3       1 <0>         0.0526
     24 H3        -11.2267  -14.7733    1.4654 H         1 <0>         0.0564
     25 C18        -9.6579  -13.3843    0.9650 C.3       1 <0>         0.1180
     26 H4        -10.1741  -12.5291    1.4012 H         1 <0>         0.0607
     27 O1         -9.9251  -13.4371   -0.4379 O.3       1 <0>        -0.5158
     28 O2         -9.8865  -14.6186    3.0301 O.3       1 <0>        -0.5398
     29 O3         -9.8922  -17.0739    1.6335 O.3       1 <0>        -0.5687
     30 O4         -7.6557  -15.6760    2.6450 O.3       1 <0>        -0.5428
     31 O5         -7.6944  -14.4944   -0.8229 O.3       1 <0>        -0.5142
     32 H5          1.0039    1.9031    0.0027 H         1 <0>         0.0536
     33 H6         -0.5459    1.8868   -0.8726 H         1 <0>         0.0534
     34 H7         -0.5289    1.8773    0.9072 H         1 <0>         0.0532
     35 H8          0.5123   -0.3556   -0.8948 H         1 <0>         0.0606
     36 H9          0.5293   -0.3651    0.8851 H         1 <0>         0.0603
     37 H10        -1.9435   -0.1821    0.9097 H         1 <0>         0.0605
     38 H11        -1.9605   -0.1726   -0.8702 H         1 <0>         0.0609
     39 H12        -0.9024   -2.4150   -0.8923 H         1 <0>         0.0615
     40 H13        -0.8854   -2.4246    0.8875 H         1 <0>         0.0608
     41 H14        -3.3581   -2.2415    0.9121 H         1 <0>         0.0612
     42 H15        -3.3751   -2.2320   -0.8677 H         1 <0>         0.0621
     43 H16        -2.3170   -4.4744   -0.8899 H         1 <0>         0.0646
     44 H17        -2.3000   -4.4840    0.8900 H         1 <0>         0.0625
     45 H18        -4.7728   -4.3010    0.9146 H         1 <0>         0.0661
     46 H19        -4.7898   -4.2914   -0.8653 H         1 <0>         0.0684
     47 H20        -3.7316   -6.5338   -0.8874 H         1 <0>         0.0832
     48 H21        -3.7146   -6.5434    0.8924 H         1 <0>         0.0712
     49 H22        -6.1874   -6.3604    0.9170 H         1 <0>         0.1047
     50 H23        -6.2044   -6.3508   -0.8628 H         1 <0>         0.1001
     51 H24        -6.8632   -8.6759    1.7585 H         1 <0>         0.1868
     52 H25        -5.6713  -12.2745    1.1250 H         1 <0>         0.0895
     53 H26        -6.6537  -11.3139    2.2565 H         1 <0>         0.0481
     54 H27        -8.3941  -11.2970    0.5602 H         1 <0>         0.3425
     55 H28        -7.9479  -13.2010    2.2622 H         1 <0>         0.0895
     56 H29        -9.6330  -15.9120   -0.0551 H         1 <0>         0.0850
     57 H30       -10.8627  -13.5277   -0.6565 H         1 <0>         0.3658
     58 H31       -10.1749  -15.4038    3.5152 H         1 <0>         0.3796
     59 H32       -10.8408  -17.2296    1.5294 H         1 <0>         0.3825
     60 H33        -7.9442  -16.4612    3.1301 H         1 <0>         0.3813
     61 H34        -7.2659  -15.2326   -1.2775 H         1 <0>         0.3644
@<TRIPOS>BOND
     1    1    2 1
     2    1   32 1
     3    1   33 1
     4    1   34 1
     5    2    3 1
     6    2   35 1
     7    2   36 1
     8    3    4 1
     9    3   37 1
    10    3   38 1
    11    4    5 1
    12    4   39 1
    13    4   40 1
    14    5    6 1
    15    5   41 1
    16    5   42 1
    17    6    7 1
    18    6   43 1
    19    6   44 1
    20    7    8 1
    21    7   45 1
    22    7   46 1
    23    8    9 1
    24    8   47 1
    25    8   48 1
    26    9   10 1
    27    9   49 1
    28    9   50 1
    29   10   14 1
    30   10   11 1
    31   11   12 2
    32   11   51 1
    33   12   13 1
    34   12   15 1
    35   13   14 2
    36   15   16 1
    37   15   52 1
    38   15   53 1
    39   16   17 1
    40   16   54 1
    41   17   25 1
    42   17   18 1
    43   17   55 1
    44   18   19 1
    45   18   20 1
    46   18   31 1
    47   20   21 1
    48   20   22 1
    49   20   30 1
    50   22   23 1
    51   22   29 1
    52   22   56 1
    53   23   24 1
    54   23   25 1
    55   23   28 1
    56   25   26 1
    57   25   27 1
    58   27   57 1
    59   28   58 1
    60   29   59 1
    61   30   60 1
    62   31   61 1
@<TRIPOS>MOLECULE
CHEMBL1086532
   77    78     0     0     0
SMALL
USER_CHARGES

@<TRIPOS>ATOM
      1 C1         -0.0187    1.5258    0.0104 C.3       1 <0>        -0.1547
      2 C2          0.0021   -0.0041    0.0020 C.3       1 <0>        -0.1261
      3 C3         -1.4333   -0.5336    0.0129 C.3       1 <0>        -0.1214
      4 C4         -1.4126   -2.0635    0.0045 C.3       1 <0>        -0.1212
      5 C5         -2.8479   -2.5931    0.0153 C.3       1 <0>        -0.1209
      6 C6         -2.8272   -4.1229    0.0069 C.3       1 <0>        -0.1206
      7 C7         -4.2626   -4.6525    0.0178 C.3       1 <0>        -0.1210
      8 C8         -4.2418   -6.1823    0.0094 C.3       1 <0>        -0.1206
      9 C9         -5.6772   -6.7119    0.0202 C.3       1 <0>        -0.1212
     10 C10        -5.6565   -8.2417    0.0118 C.3       1 <0>        -0.1205
     11 C11        -7.0918   -8.7713    0.0227 C.3       1 <0>        -0.1201
     12 C12        -7.0711  -10.3012    0.0143 C.3       1 <0>        -0.1171
     13 C13        -8.5065  -10.8307    0.0251 C.3       1 <0>        -0.1350
     14 C14        -8.4857  -12.3606    0.0167 C.3       1 <0>         0.1052
     15 N1         -9.8601  -12.8677    0.0271 N.pl3     1 <0>        -0.2753
     16 C15       -10.3933  -13.7315   -0.8676 C.2       1 <0>        -0.0024
     17 C16       -11.6764  -13.9274   -0.4841 C.2       1 <0>        -0.1044
     18 N2        -11.8631  -13.1837    0.6120 N.2       1 <0>        -0.2409
     19 N3        -10.7664  -12.5723    0.8921 N.2       1 <0>        -0.0494
     20 C17       -12.6947  -14.8095   -1.1594 C.3       1 <0>         0.0952
     21 N4        -12.7102  -16.1264   -0.5086 N.4       1 <0>        -0.5019
     22 C18       -13.7028  -16.9862   -1.1669 C.3       1 <0>         0.0550
     23 C19       -15.1029  -16.4096   -0.9470 C.3       1 <0>         0.1011
     24 H1        -15.1533  -15.4065   -1.3705 H         1 <0>         0.0944
     25 C20       -16.1367  -17.3052   -1.6326 C.3       1 <0>         0.0948
     26 H2        -17.1341  -16.8944   -1.4760 H         1 <0>         0.0822
     27 C21       -16.0660  -18.7132   -1.0382 C.3       1 <0>         0.0394
     28 C22       -14.6659  -19.2898   -1.2581 C.3       1 <0>         0.0543
     29 H3        -14.6155  -20.2930   -0.8346 H         1 <0>         0.0768
     30 C23       -13.6321  -18.3943   -0.5725 C.3       1 <0>         0.1020
     31 H4        -12.6347  -18.8051   -0.7291 H         1 <0>         0.0904
     32 O1        -13.9080  -18.3344    0.8284 O.3       1 <0>        -0.5392
     33 O2        -14.3900  -19.3497   -2.6589 O.3       1 <0>        -0.5442
     34 O3        -17.0315  -19.5497   -1.6786 O.3       1 <0>        -0.5608
     35 O4        -15.8608  -17.3651   -3.0335 O.3       1 <0>        -0.5473
     36 O5        -15.3788  -16.3497    0.4538 O.3       1 <0>        -0.5385
     37 H5          1.0039    1.9031    0.0027 H         1 <0>         0.0542
     38 H6         -0.5459    1.8868   -0.8726 H         1 <0>         0.0535
     39 H7         -0.5289    1.8773    0.9072 H         1 <0>         0.0535
     40 H8          0.5123   -0.3556   -0.8948 H         1 <0>         0.0603
     41 H9          0.5293   -0.3651    0.8851 H         1 <0>         0.0604
     42 H10        -1.9435   -0.1821    0.9097 H         1 <0>         0.0607
     43 H11        -1.9605   -0.1726   -0.8702 H         1 <0>         0.0606
     44 H12        -0.9024   -2.4150   -0.8923 H         1 <0>         0.0605
     45 H13        -0.8854   -2.4246    0.8875 H         1 <0>         0.0607
     46 H14        -3.3581   -2.2415    0.9121 H         1 <0>         0.0606
     47 H15        -3.3751   -2.2320   -0.8677 H         1 <0>         0.0605
     48 H16        -2.3170   -4.4744   -0.8899 H         1 <0>         0.0605
     49 H17        -2.3000   -4.4840    0.8900 H         1 <0>         0.0607
     50 H18        -4.7728   -4.3010    0.9146 H         1 <0>         0.0608
     51 H19        -4.7898   -4.2914   -0.8653 H         1 <0>         0.0605
     52 H20        -3.7316   -6.5338   -0.8874 H         1 <0>         0.0607
     53 H21        -3.7146   -6.5434    0.8924 H         1 <0>         0.0611
     54 H22        -6.1874   -6.3604    0.9170 H         1 <0>         0.0616
     55 H23        -6.2044   -6.3508   -0.8628 H         1 <0>         0.0609
     56 H24        -5.1463   -8.5933   -0.8850 H         1 <0>         0.0620
     57 H25        -5.1293   -8.6028    0.8949 H         1 <0>         0.0628
     58 H26        -7.6020   -8.4198    0.9195 H         1 <0>         0.0653
     59 H27        -7.6190   -8.4102   -0.8604 H         1 <0>         0.0632
     60 H28        -6.5609  -10.6527   -0.8825 H         1 <0>         0.0686
     61 H29        -6.5439  -10.6622    0.8973 H         1 <0>         0.0708
     62 H30        -9.0167  -10.4792    0.9219 H         1 <0>         0.0855
     63 H31        -9.0337  -10.4697   -0.8579 H         1 <0>         0.0739
     64 H32        -7.9755  -12.7121   -0.8801 H         1 <0>         0.1153
     65 H33        -7.9586  -12.7217    0.8998 H         1 <0>         0.1116
     66 H34        -9.8953  -14.1751   -1.7171 H         1 <0>         0.2027
     67 H35       -13.6812  -14.3529   -1.0791 H         1 <0>         0.1461
     68 H36       -12.4333  -14.9270   -2.2110 H         1 <0>         0.1491
     69 H37       -11.7970  -16.5491   -0.5830 H         1 <0>         0.4253
     70 H38       -13.4924  -17.0319   -2.2354 H         1 <0>         0.1770
     71 H39       -16.2764  -18.6675    0.0303 H         1 <0>         0.0906
     72 H40       -13.8803  -19.1933    1.2718 H         1 <0>         0.3997
     73 H41       -15.0075  -19.9016   -3.1581 H         1 <0>         0.3954
     74 H42       -17.0429  -20.4594   -1.3508 H         1 <0>         0.3926
     75 H43       -16.4783  -17.9169   -3.5327 H         1 <0>         0.3986
     76 H44       -16.2518  -15.9932    0.6678 H         1 <0>         0.4021
     77 H45       -12.9523  -16.0177    0.4649 H         1 <0>         0.4436
@<TRIPOS>BOND
     1    1    2 1
     2    1   37 1
     3    1   38 1
     4    1   39 1
     5    2    3 1
     6    2   40 1
     7    2   41 1
     8    3    4 1
     9    3   42 1
    10    3   43 1
    11    4    5 1
    12    4   44 1
    13    4   45 1
    14    5    6 1
    15    5   46 1
    16    5   47 1
    17    6    7 1
    18    6   48 1
    19    6   49 1
    20    7    8 1
    21    7   50 1
    22    7   51 1
    23    8    9 1
    24    8   52 1
    25    8   53 1
    26    9   10 1
    27    9   54 1
    28    9   55 1
    29   10   11 1
    30   10   56 1
    31   10   57 1
    32   11   12 1
    33   11   58 1
    34   11   59 1
    35   12   13 1
    36   12   60 1
    37   12   61 1
    38   13   14 1
    39   13   62 1
    40   13   63 1
    41   14   15 1
    42   14   64 1
    43   14   65 1
    44   15   19 1
    45   15   16 1
    46   16   17 2
    47   16   66 1
    48   17   18 1
    49   17   20 1
    50   18   19 2
    51   20   21 1
    52   20   67 1
    53   20   68 1
    54   21   22 1
    55   21   69 1
    56   21   77 1
    57   22   30 1
    58   22   23 1
    59   22   70 1
    60   23   24 1
    61   23   25 1
    62   23   36 1
    63   25   26 1
    64   25   27 1
    65   25   35 1
    66   27   28 1
    67   27   34 1
    68   27   71 1
    69   28   29 1
    70   28   30 1
    71   28   33 1
    72   30   31 1
    73   30   32 1
    74   32   72 1
    75   33   73 1
    76   34   74 1
    77   35   75 1
    78   36   76 1
@<TRIPOS>MOLECULE
CHEMBL1086532__1
   76    77     0     0     0
SMALL
USER_CHARGES

@<TRIPOS>ATOM
      1 C1         -0.0187    1.5258    0.0104 C.3       1 <0>        -0.1543
      2 C2          0.0021   -0.0041    0.0020 C.3       1 <0>        -0.1261
      3 C3          0.7182   -0.4975   -1.2568 C.3       1 <0>        -0.1214
      4 C4          0.7390   -2.0273   -1.2652 C.3       1 <0>        -0.1211
      5 C5          1.4551   -2.5207   -2.5240 C.3       1 <0>        -0.1208
      6 C6          1.4758   -4.0506   -2.5324 C.3       1 <0>        -0.1205
      7 C7          2.1920   -4.5440   -3.7912 C.3       1 <0>        -0.1209
      8 C8          2.2127   -6.0738   -3.7996 C.3       1 <0>        -0.1203
      9 C9          2.9289   -6.5673   -5.0584 C.3       1 <0>        -0.1212
     10 C10         2.9496   -8.0971   -5.0668 C.3       1 <0>        -0.1199
     11 C11         3.6658   -8.5905   -6.3257 C.3       1 <0>        -0.1199
     12 C12         3.6865  -10.1203   -6.3341 C.3       1 <0>        -0.1163
     13 C13         4.4026  -10.6138   -7.5929 C.3       1 <0>        -0.1332
     14 C14         4.4234  -12.1436   -7.6013 C.3       1 <0>         0.1145
     15 N1          5.1091  -12.6161   -8.8066 N.pl3     1 <0>        -0.2904
     16 C15         6.1639  -13.4631   -8.8382 C.2       1 <0>        -0.0486
     17 C16         6.4760  -13.6281  -10.1448 C.2       1 <0>        -0.0138
     18 N2          5.6084  -12.8837  -10.8395 N.2       1 <0>        -0.2474
     19 N3          4.8083  -12.3011  -10.0178 N.2       1 <0>        -0.0827
     20 C17         7.5834  -14.4820  -10.7065 C.3       1 <0>         0.1442
     21 N4          7.0481  -15.8003  -11.0716 N.3       1 <0>        -0.6599
     22 C18         8.1019  -16.6618  -11.6241 C.3       1 <0>         0.1152
     23 C19         8.2562  -16.3830  -13.1205 C.3       1 <0>         0.1309
     24 H1          8.5264  -15.3375  -13.2693 H         1 <0>         0.0655
     25 C20         9.3538  -17.2803  -13.6960 C.3       1 <0>         0.0901
     26 H2          9.4638  -17.0816  -14.7620 H         1 <0>         0.0612
     27 C21         8.9745  -18.7477  -13.4871 C.3       1 <0>         0.0438
     28 C22         8.8202  -19.0266  -11.9907 C.3       1 <0>         0.0526
     29 H3          8.5500  -20.0720  -11.8419 H         1 <0>         0.0563
     30 C23         7.7226  -18.1293  -11.4152 C.3       1 <0>         0.1180
     31 H4          7.6126  -18.3280  -10.3491 H         1 <0>         0.0607
     32 O1          6.4875  -18.4014  -12.0804 O.3       1 <0>        -0.5158
     33 O2         10.0553  -18.7545  -11.3255 O.3       1 <0>        -0.5398
     34 O3          9.9996  -19.5858  -14.0245 O.3       1 <0>        -0.5688
     35 O4         10.5889  -17.0082  -13.0308 O.3       1 <0>        -0.5428
     36 O5          7.0211  -16.6551  -13.7856 O.3       1 <0>        -0.5142
     37 H5          1.0039    1.9031    0.0027 H         1 <0>         0.0533
     38 H6         -0.5459    1.8868   -0.8726 H         1 <0>         0.0534
     39 H7         -0.5289    1.8773    0.9072 H         1 <0>         0.0535
     40 H8          0.5293   -0.3651    0.8851 H         1 <0>         0.0602
     41 H9         -1.0205   -0.3814    0.0098 H         1 <0>         0.0602
     42 H10         0.1910   -0.1364   -2.1398 H         1 <0>         0.0606
     43 H11         1.7408   -0.1202   -1.2645 H         1 <0>         0.0605
     44 H12         1.2661   -2.3884   -0.3821 H         1 <0>         0.0604
     45 H13        -0.2836   -2.4046   -1.2575 H         1 <0>         0.0605
     46 H14         0.9279   -2.1597   -3.4071 H         1 <0>         0.0606
     47 H15         2.4777   -2.1435   -2.5317 H         1 <0>         0.0604
     48 H16         2.0030   -4.4117   -1.6494 H         1 <0>         0.0602
     49 H17         0.4533   -4.4279   -2.5247 H         1 <0>         0.0604
     50 H18         1.6648   -4.1829   -4.6743 H         1 <0>         0.0607
     51 H19         3.2146   -4.1667   -3.7990 H         1 <0>         0.0604
     52 H20         2.7399   -6.4349   -2.9166 H         1 <0>         0.0603
     53 H21         1.1901   -6.4511   -3.7919 H         1 <0>         0.0606
     54 H22         2.4017   -6.2062   -5.9415 H         1 <0>         0.0613
     55 H23         3.9515   -6.1900   -5.0662 H         1 <0>         0.0607
     56 H24         3.4768   -8.4582   -4.1838 H         1 <0>         0.0611
     57 H25         1.9270   -8.4744   -5.0591 H         1 <0>         0.0620
     58 H26         3.1386   -8.2294   -7.2087 H         1 <0>         0.0645
     59 H27         4.6884   -8.2132   -6.3334 H         1 <0>         0.0625
     60 H28         4.2137  -10.4814   -5.4510 H         1 <0>         0.0660
     61 H29         2.6639  -10.4976   -6.3263 H         1 <0>         0.0683
     62 H30         3.8755  -10.2527   -8.4759 H         1 <0>         0.0832
     63 H31         5.4252  -10.2365   -7.6006 H         1 <0>         0.0711
     64 H32         4.9506  -12.5047   -6.7182 H         1 <0>         0.1047
     65 H33         3.4008  -12.5209   -7.5935 H         1 <0>         0.1001
     66 H34         6.6576  -13.9161   -7.9911 H         1 <0>         0.1868
     67 H35         7.9997  -14.0010  -11.5917 H         1 <0>         0.0895
     68 H36         8.3654  -14.6023   -9.9567 H         1 <0>         0.0481
     69 H37         6.5989  -16.2395  -10.2820 H         1 <0>         0.3425
     70 H38         9.0440  -16.4543  -11.1167 H         1 <0>         0.0896
     71 H39         8.0324  -18.9553  -13.9944 H         1 <0>         0.0850
     72 H40         6.1852  -19.3155  -11.9901 H         1 <0>         0.3658
     73 H41        10.7975  -19.2886  -11.6402 H         1 <0>         0.3796
     74 H42         9.8255  -20.5320  -13.9271 H         1 <0>         0.3825
     75 H43        11.3311  -17.5423  -13.3455 H         1 <0>         0.3813
     76 H44         7.0456  -16.4997  -14.7398 H         1 <0>         0.3644
@<TRIPOS>BOND
     1    1    2 1
     2    1   37 1
     3    1   38 1
     4    1   39 1
     5    2    3 1
     6    2   40 1
     7    2   41 1
     8    3    4 1
     9    3   42 1
    10    3   43 1
    11    4    5 1
    12    4   44 1
    13    4   45 1
    14    5    6 1
    15    5   46 1
    16    5   47 1
    17    6    7 1
    18    6   48 1
    19    6   49 1
    20    7    8 1
    21    7   50 1
    22    7   51 1
    23    8    9 1
    24    8   52 1
    25    8   53 1
    26    9   10 1
    27    9   54 1
    28    9   55 1
    29   10   11 1
    30   10   56 1
    31   10   57 1
    32   11   12 1
    33   11   58 1
    34   11   59 1
    35   12   13 1
    36   12   60 1
    37   12   61 1
    38   13   14 1
    39   13   62 1
    40   13   63 1
    41   14   15 1
    42   14   64 1
    43   14   65 1
    44   15   19 1
    45   15   16 1
    46   16   17 2
    47   16   66 1
    48   17   18 1
    49   17   20 1
    50   18   19 2
    51   20   21 1
    52   20   67 1
    53   20   68 1
    54   21   22 1
    55   21   69 1
    56   22   30 1
    57   22   23 1
    58   22   70 1
    59   23   24 1
    60   23   25 1
    61   23   36 1
    62   25   26 1
    63   25   27 1
    64   25   35 1
    65   27   28 1
    66   27   34 1
    67   27   71 1
    68   28   29 1
    69   28   30 1
    70   28   33 1
    71   30   31 1
    72   30   32 1
    73   32   72 1
    74   33   73 1
    75   34   74 1
    76   35   75 1
    77   36   76 1
@<TRIPOS>MOLECULE
CHEMBL1084109
   71    72     0     0     0
SMALL
USER_CHARGES

@<TRIPOS>ATOM
      1 C1         -0.0187    1.5258    0.0104 C.3       1 <0>        -0.1549
      2 C2          0.0021   -0.0041    0.0020 C.3       1 <0>        -0.1261
      3 C3          0.7182   -0.4975   -1.2568 C.3       1 <0>        -0.1215
      4 C4          0.7390   -2.0273   -1.2652 C.3       1 <0>        -0.1212
      5 C5          1.4551   -2.5207   -2.5240 C.3       1 <0>        -0.1210
      6 C6          1.4758   -4.0506   -2.5324 C.3       1 <0>        -0.1206
      7 C7          2.1920   -4.5440   -3.7912 C.3       1 <0>        -0.1213
      8 C8          2.2127   -6.0738   -3.7996 C.3       1 <0>        -0.1205
      9 C9          2.9289   -6.5673   -5.0584 C.3       1 <0>        -0.1201
     10 C10         2.9496   -8.0971   -5.0668 C.3       1 <0>        -0.1171
     11 C11         3.6658   -8.5905   -6.3257 C.3       1 <0>        -0.1351
     12 C12         3.6865  -10.1203   -6.3341 C.3       1 <0>         0.1052
     13 N1          4.3722  -10.5928   -7.5394 N.pl3     1 <0>        -0.2753
     14 C13         5.4270  -11.4398   -7.5710 C.2       1 <0>        -0.0024
     15 C14         5.7391  -11.6048   -8.8776 C.2       1 <0>        -0.1044
     16 N2          4.8715  -10.8605   -9.5723 N.2       1 <0>        -0.2409
     17 N3          4.0714  -10.2779   -8.7506 N.2       1 <0>        -0.0494
     18 C15         6.8465  -12.4587   -9.4393 C.3       1 <0>         0.0952
     19 N4          6.3112  -13.7771   -9.8044 N.4       1 <0>        -0.5019
     20 C16         7.3907  -14.6094  -10.3519 C.3       1 <0>         0.0549
     21 C17         7.8910  -13.9986  -11.6625 C.3       1 <0>         0.1011
     22 H1          8.2673  -12.9931  -11.4743 H         1 <0>         0.0944
     23 C18         9.0153  -14.8656  -12.2327 C.3       1 <0>         0.0948
     24 H2          9.3717  -14.4304  -13.1664 H         1 <0>         0.0822
     25 C19         8.4871  -16.2770  -12.4968 C.3       1 <0>         0.0394
     26 C20         7.9868  -16.8878  -11.1862 C.3       1 <0>         0.0543
     27 H3          7.6105  -17.8933  -11.3743 H         1 <0>         0.0768
     28 C21         6.8625  -16.0209  -10.6159 C.3       1 <0>         0.1021
     29 H4          6.5061  -16.4560   -9.6823 H         1 <0>         0.0904
     30 O1          5.7863  -15.9590  -11.5540 O.3       1 <0>        -0.5392
     31 O2          9.0631  -16.9497  -10.2482 O.3       1 <0>        -0.5442
     32 O3          9.5372  -17.0867  -13.0294 O.3       1 <0>        -0.5607
     33 O4         10.0915  -14.9275  -11.2947 O.3       1 <0>        -0.5473
     34 O5          6.8147  -13.9367  -12.6005 O.3       1 <0>        -0.5385
     35 H5          1.0039    1.9031    0.0027 H         1 <0>         0.0535
     36 H6         -0.5459    1.8868   -0.8726 H         1 <0>         0.0536
     37 H7         -0.5289    1.8773    0.9072 H         1 <0>         0.0544
     38 H8          0.5293   -0.3651    0.8851 H         1 <0>         0.0603
     39 H9         -1.0205   -0.3814    0.0098 H         1 <0>         0.0604
     40 H10         0.1910   -0.1364   -2.1398 H         1 <0>         0.0608
     41 H11         1.7408   -0.1202   -1.2645 H         1 <0>         0.0606
     42 H12         1.2661   -2.3884   -0.3821 H         1 <0>         0.0606
     43 H13        -0.2836   -2.4046   -1.2575 H         1 <0>         0.0608
     44 H14         0.9279   -2.1597   -3.4071 H         1 <0>         0.0609
     45 H15         2.4777   -2.1435   -2.5317 H         1 <0>         0.0606
     46 H16         2.0030   -4.4117   -1.6494 H         1 <0>         0.0607
     47 H17         0.4533   -4.4279   -2.5247 H         1 <0>         0.0611
     48 H18         1.6648   -4.1829   -4.6743 H         1 <0>         0.0616
     49 H19         3.2146   -4.1667   -3.7990 H         1 <0>         0.0610
     50 H20         2.7399   -6.4349   -2.9166 H         1 <0>         0.0620
     51 H21         1.1901   -6.4511   -3.7919 H         1 <0>         0.0629
     52 H22         2.4017   -6.2062   -5.9415 H         1 <0>         0.0653
     53 H23         3.9515   -6.1900   -5.0662 H         1 <0>         0.0632
     54 H24         3.4768   -8.4582   -4.1838 H         1 <0>         0.0686
     55 H25         1.9270   -8.4744   -5.0591 H         1 <0>         0.0708
     56 H26         3.1386   -8.2294   -7.2087 H         1 <0>         0.0855
     57 H27         4.6884   -8.2132   -6.3334 H         1 <0>         0.0739
     58 H28         4.2137  -10.4814   -5.4510 H         1 <0>         0.1153
     59 H29         2.6639  -10.4976   -6.3263 H         1 <0>         0.1116
     60 H30         5.9207  -11.8928   -6.7239 H         1 <0>         0.2027
     61 H31         7.2628  -11.9778  -10.3244 H         1 <0>         0.1461
     62 H32         7.6285  -12.5790   -8.6895 H         1 <0>         0.1491
     63 H33         5.9258  -14.2223   -8.9850 H         1 <0>         0.4253
     64 H34         8.2116  -14.6567   -9.6364 H         1 <0>         0.1770
     65 H35         7.6662  -16.2298  -13.2123 H         1 <0>         0.0906
     66 H36         5.4018  -16.8198  -11.7689 H         1 <0>         0.3997
     67 H37         9.8126  -17.4841  -10.5442 H         1 <0>         0.3954
     68 H38         9.2732  -17.9970  -13.2213 H         1 <0>         0.3926
     69 H39        10.8411  -15.4619  -11.5907 H         1 <0>         0.3986
     70 H40         7.0601  -13.5592  -13.4563 H         1 <0>         0.4021
     71 H41         5.5873  -13.6657  -10.4985 H         1 <0>         0.4436
@<TRIPOS>BOND
     1    1    2 1
     2    1   35 1
     3    1   36 1
     4    1   37 1
     5    2    3 1
     6    2   38 1
     7    2   39 1
     8    3    4 1
     9    3   40 1
    10    3   41 1
    11    4    5 1
    12    4   42 1
    13    4   43 1
    14    5    6 1
    15    5   44 1
    16    5   45 1
    17    6    7 1
    18    6   46 1
    19    6   47 1
    20    7    8 1
    21    7   48 1
    22    7   49 1
    23    8    9 1
    24    8   50 1
    25    8   51 1
    26    9   10 1
    27    9   52 1
    28    9   53 1
    29   10   11 1
    30   10   54 1
    31   10   55 1
    32   11   12 1
    33   11   56 1
    34   11   57 1
    35   12   13 1
    36   12   58 1
    37   12   59 1
    38   13   17 1
    39   13   14 1
    40   14   15 2
    41   14   60 1
    42   15   16 1
    43   15   18 1
    44   16   17 2
    45   18   19 1
    46   18   61 1
    47   18   62 1
    48   19   20 1
    49   19   63 1
    50   19   71 1
    51   20   28 1
    52   20   21 1
    53   20   64 1
    54   21   22 1
    55   21   23 1
    56   21   34 1
    57   23   24 1
    58   23   25 1
    59   23   33 1
    60   25   26 1
    61   25   32 1
    62   25   65 1
    63   26   27 1
    64   26   28 1
    65   26   31 1
    66   28   29 1
    67   28   30 1
    68   30   66 1
    69   31   67 1
    70   32   68 1
    71   33   69 1
    72   34   70 1
@<TRIPOS>MOLECULE
CHEMBL1084109__1
   70    71     0     0     0
SMALL
USER_CHARGES

@<TRIPOS>ATOM
      1 C1         -0.0187    1.5258    0.0104 C.3       1 <0>        -0.1544
      2 C2          0.0021   -0.0041    0.0020 C.3       1 <0>        -0.1261
      3 C3          0.7421   -0.5109    1.2415 C.3       1 <0>        -0.1215
      4 C4          0.7628   -2.0407    1.2331 C.3       1 <0>        -0.1210
      5 C5          1.5028   -2.5476    2.4727 C.3       1 <0>        -0.1210
      6 C6          1.5236   -4.0774    2.4642 C.3       1 <0>        -0.1203
      7 C7          2.2636   -4.5842    3.7038 C.3       1 <0>        -0.1212
      8 C8          2.2843   -6.1141    3.6954 C.3       1 <0>        -0.1199
      9 C9          3.0243   -6.6209    4.9349 C.3       1 <0>        -0.1199
     10 C10         3.0450   -8.1508    4.9265 C.3       1 <0>        -0.1163
     11 C11         3.7850   -8.6576    6.1660 C.3       1 <0>        -0.1332
     12 C12         3.8058  -10.1874    6.1576 C.3       1 <0>         0.1145
     13 N1          4.5143  -10.6727    7.3445 N.pl3     1 <0>        -0.2904
     14 C13         4.0278  -11.5459    8.2565 C.2       1 <0>        -0.0486
     15 C14         5.0060  -11.7141    9.1767 C.2       1 <0>        -0.0138
     16 N2          6.0296  -10.9457    8.7877 N.2       1 <0>        -0.2473
     17 N3          5.7087  -10.3461    7.6959 N.2       1 <0>        -0.0826
     18 C15         4.9523  -12.5935   10.3993 C.3       1 <0>         0.1442
     19 N4          5.5566  -13.8967   10.0920 N.3       1 <0>        -0.6599
     20 C16         5.5219  -14.7825   11.2634 C.3       1 <0>         0.1152
     21 C17         6.7364  -14.5024   12.1507 C.3       1 <0>         0.1309
     22 H1          6.7139  -13.4635   12.4800 H         1 <0>         0.0655
     23 C18         6.7002  -15.4249   13.3708 C.3       1 <0>         0.0900
     24 H2          7.5654  -15.2253   14.0030 H         1 <0>         0.0612
     25 C19         6.7317  -16.8831   12.9087 C.3       1 <0>         0.0437
     26 C20         5.5172  -17.1632   12.0213 C.3       1 <0>         0.0526
     27 H3          5.5397  -18.2021   11.6921 H         1 <0>         0.0563
     28 C21         5.5534  -16.2407   10.8012 C.3       1 <0>         0.1180
     29 H4          4.6881  -16.4403   10.1691 H         1 <0>         0.0607
     30 O1          6.7509  -16.4794   10.0589 O.3       1 <0>        -0.5158
     31 O2          4.3197  -16.9246   12.7636 O.3       1 <0>        -0.5398
     32 O3          6.6980  -17.7448   14.0482 O.3       1 <0>        -0.5687
     33 O4          5.5027  -15.1863   14.1131 O.3       1 <0>        -0.5428
     34 O5          7.9339  -14.7410   11.4084 O.3       1 <0>        -0.5142
     35 H5          1.0039    1.9031    0.0027 H         1 <0>         0.0534
     36 H6         -0.5459    1.8868   -0.8726 H         1 <0>         0.0535
     37 H7         -0.5289    1.8773    0.9072 H         1 <0>         0.0533
     38 H8         -1.0205   -0.3814    0.0098 H         1 <0>         0.0602
     39 H9          0.5123   -0.3556   -0.8948 H         1 <0>         0.0603
     40 H10         1.7647   -0.1336    1.2338 H         1 <0>         0.0607
     41 H11         0.2319   -0.1594    2.1383 H         1 <0>         0.0605
     42 H12        -0.2598   -2.4180    1.2409 H         1 <0>         0.0604
     43 H13         1.2730   -2.3923    0.3363 H         1 <0>         0.0606
     44 H14         2.5254   -2.1703    2.4649 H         1 <0>         0.0607
     45 H15         0.9926   -2.1961    3.3695 H         1 <0>         0.0605
     46 H16         0.5010   -4.4547    2.4720 H         1 <0>         0.0603
     47 H17         2.0337   -4.4289    1.5675 H         1 <0>         0.0607
     48 H18         3.2861   -4.2070    3.6960 H         1 <0>         0.0614
     49 H19         1.7534   -4.2327    4.6006 H         1 <0>         0.0607
     50 H20         1.2617   -6.4914    3.7031 H         1 <0>         0.0611
     51 H21         2.7945   -6.4656    2.7986 H         1 <0>         0.0620
     52 H22         4.0469   -6.2436    4.9271 H         1 <0>         0.0645
     53 H23         2.5141   -6.2694    5.8317 H         1 <0>         0.0625
     54 H24         2.0224   -8.5280    4.9342 H         1 <0>         0.0661
     55 H25         3.5552   -8.5023    4.0297 H         1 <0>         0.0684
     56 H26         4.8076   -8.2803    6.1583 H         1 <0>         0.0832
     57 H27         3.2748   -8.3061    7.0628 H         1 <0>         0.0711
     58 H28         2.7832  -10.5647    6.1653 H         1 <0>         0.1047
     59 H29         4.3160  -10.5389    5.2608 H         1 <0>         0.1001
     60 H30         3.0546  -12.0141    8.2514 H         1 <0>         0.1868
     61 H31         5.5034  -12.1201   11.2119 H         1 <0>         0.0895
     62 H32         3.9141  -12.7360   10.6991 H         1 <0>         0.0481
     63 H33         5.1040  -14.3273    9.2996 H         1 <0>         0.3425
     64 H34         4.6084  -14.6005   11.8296 H         1 <0>         0.0896
     65 H35         7.6451  -17.0652   12.3424 H         1 <0>         0.0850
     66 H36         6.8380  -17.3859    9.7338 H         1 <0>         0.3658
     67 H37         4.2297  -17.4760   13.5529 H         1 <0>         0.3796
     68 H38         6.7153  -18.6866   13.8297 H         1 <0>         0.3825
     69 H39         5.4127  -15.7377   14.9024 H         1 <0>         0.3813
     70 H40         8.7455  -14.5830   11.9098 H         1 <0>         0.3644
@<TRIPOS>BOND
     1    1    2 1
     2    1   35 1
     3    1   36 1
     4    1   37 1
     5    2    3 1
     6    2   38 1
     7    2   39 1
     8    3    4 1
     9    3   40 1
    10    3   41 1
    11    4    5 1
    12    4   42 1
    13    4   43 1
    14    5    6 1
    15    5   44 1
    16    5   45 1
    17    6    7 1
    18    6   46 1
    19    6   47 1
    20    7    8 1
    21    7   48 1
    22    7   49 1
    23    8    9 1
    24    8   50 1
    25    8   51 1
    26    9   10 1
    27    9   52 1
    28    9   53 1
    29   10   11 1
    30   10   54 1
    31   10   55 1
    32   11   12 1
    33   11   56 1
    34   11   57 1
    35   12   13 1
    36   12   58 1
    37   12   59 1
    38   13   17 1
    39   13   14 1
    40   14   15 2
    41   14   60 1
    42   15   16 1
    43   15   18 1
    44   16   17 2
    45   18   19 1
    46   18   61 1
    47   18   62 1
    48   19   20 1
    49   19   63 1
    50   20   28 1
    51   20   21 1
    52   20   64 1
    53   21   22 1
    54   21   23 1
    55   21   34 1
    56   23   24 1
    57   23   25 1
    58   23   33 1
    59   25   26 1
    60   25   32 1
    61   25   65 1
    62   26   27 1
    63   26   28 1
    64   26   31 1
    65   28   29 1
    66   28   30 1
    67   30   66 1
    68   31   67 1
    69   32   68 1
    70   33   69 1
    71   34   70 1
@<TRIPOS>MOLECULE
CHEMBL1082596
   65    66     0     0     0
SMALL
USER_CHARGES

@<TRIPOS>ATOM
      1 C1         -0.0187    1.5258    0.0104 C.3       1 <0>        -0.1551
      2 C2          0.0021   -0.0041    0.0020 C.3       1 <0>        -0.1261
      3 C3          0.7421   -0.5109    1.2415 C.3       1 <0>        -0.1217
      4 C4          0.7628   -2.0407    1.2331 C.3       1 <0>        -0.1212
      5 C5          1.5028   -2.5476    2.4727 C.3       1 <0>        -0.1214
      6 C6          1.5236   -4.0774    2.4642 C.3       1 <0>        -0.1205
      7 C7          2.2636   -4.5842    3.7038 C.3       1 <0>        -0.1201
      8 C8          2.2843   -6.1141    3.6954 C.3       1 <0>        -0.1171
      9 C9          3.0243   -6.6209    4.9349 C.3       1 <0>        -0.1351
     10 C10         3.0450   -8.1508    4.9265 C.3       1 <0>         0.1052
     11 N1          3.7536   -8.6361    6.1133 N.pl3     1 <0>        -0.2754
     12 C11         3.2670   -9.5092    7.0254 C.2       1 <0>        -0.0023
     13 C12         4.2452   -9.6774    7.9456 C.2       1 <0>        -0.1044
     14 N2          5.2689   -8.9091    7.5566 N.2       1 <0>        -0.2409
     15 N3          4.9480   -8.3094    6.4647 N.2       1 <0>        -0.0494
     16 C13         4.1916  -10.5568    9.1682 C.3       1 <0>         0.0953
     17 N4          4.7958  -11.8601    8.8609 N.4       1 <0>        -0.5019
     18 C14         4.7435  -12.7173   10.0526 C.3       1 <0>         0.0550
     19 C15         5.6190  -12.1147   11.1532 C.3       1 <0>         0.1011
     20 H1          5.2524  -11.1196   11.4051 H         1 <0>         0.0944
     21 C16         5.5645  -13.0076   12.3944 C.3       1 <0>         0.0948
     22 H2          6.1882  -12.5783   13.1785 H         1 <0>         0.0822
     23 C17         6.0791  -14.4044   12.0409 C.3       1 <0>         0.0393
     24 C18         5.2036  -15.0070   10.9403 C.3       1 <0>         0.0543
     25 H3          5.5703  -16.0021   10.6885 H         1 <0>         0.0768
     26 C19         5.2581  -14.1141    9.6991 C.3       1 <0>         0.1020
     27 H4          4.6344  -14.5435    8.9150 H         1 <0>         0.0904
     28 O1          6.6074  -14.0220    9.2375 O.3       1 <0>        -0.5392
     29 O2          3.8544  -15.0992   11.4019 O.3       1 <0>        -0.5442
     30 O3          6.0282  -15.2383   13.2002 O.3       1 <0>        -0.5608
     31 O4          4.2153  -13.0998   12.8560 O.3       1 <0>        -0.5473
     32 O5          6.9683  -12.0225   10.6916 O.3       1 <0>        -0.5386
     33 H5          1.0039    1.9031    0.0027 H         1 <0>         0.0538
     34 H6         -0.5459    1.8868   -0.8726 H         1 <0>         0.0548
     35 H7         -0.5289    1.8773    0.9072 H         1 <0>         0.0536
     36 H8         -1.0205   -0.3814    0.0098 H         1 <0>         0.0604
     37 H9          0.5123   -0.3556   -0.8948 H         1 <0>         0.0606
     38 H10         1.7647   -0.1336    1.2338 H         1 <0>         0.0610
     39 H11         0.2319   -0.1594    2.1383 H         1 <0>         0.0607
     40 H12        -0.2598   -2.4180    1.2409 H         1 <0>         0.0609
     41 H13         1.2730   -2.3923    0.3363 H         1 <0>         0.0612
     42 H14         2.5254   -2.1703    2.4649 H         1 <0>         0.0617
     43 H15         0.9926   -2.1961    3.3695 H         1 <0>         0.0610
     44 H16         0.5010   -4.4547    2.4720 H         1 <0>         0.0621
     45 H17         2.0337   -4.4289    1.5675 H         1 <0>         0.0629
     46 H18         3.2861   -4.2070    3.6960 H         1 <0>         0.0653
     47 H19         1.7534   -4.2327    4.6006 H         1 <0>         0.0632
     48 H20         1.2617   -6.4914    3.7031 H         1 <0>         0.0686
     49 H21         2.7945   -6.4656    2.7986 H         1 <0>         0.0708
     50 H22         4.0469   -6.2436    4.9271 H         1 <0>         0.0856
     51 H23         2.5141   -6.2694    5.8317 H         1 <0>         0.0739
     52 H24         2.0224   -8.5280    4.9342 H         1 <0>         0.1153
     53 H25         3.5552   -8.5023    4.0297 H         1 <0>         0.1116
     54 H26         2.2938   -9.9774    7.0203 H         1 <0>         0.2027
     55 H27         4.7426  -10.0834    9.9808 H         1 <0>         0.1461
     56 H28         3.1533  -10.6994    9.4680 H         1 <0>         0.1491
     57 H29         4.2857  -12.2983    8.1087 H         1 <0>         0.4253
     58 H30         3.7143  -12.7877   10.4047 H         1 <0>         0.1770
     59 H31         7.1083  -14.3341   11.6888 H         1 <0>         0.0906
     60 H32         6.9990  -14.8722    8.9948 H         1 <0>         0.3997
     61 H33         3.7446  -15.6512   12.1882 H         1 <0>         0.3954
     62 H34         6.3405  -16.1410   13.0494 H         1 <0>         0.3926
     63 H35         4.1054  -13.6518   13.6424 H         1 <0>         0.3986
     64 H36         7.5809  -11.6482   11.3394 H         1 <0>         0.4021
     65 H37         5.7569  -11.7281    8.5834 H         1 <0>         0.4436
@<TRIPOS>BOND
     1    1    2 1
     2    1   33 1
     3    1   34 1
     4    1   35 1
     5    2    3 1
     6    2   36 1
     7    2   37 1
     8    3    4 1
     9    3   38 1
    10    3   39 1
    11    4    5 1
    12    4   40 1
    13    4   41 1
    14    5    6 1
    15    5   42 1
    16    5   43 1
    17    6    7 1
    18    6   44 1
    19    6   45 1
    20    7    8 1
    21    7   46 1
    22    7   47 1
    23    8    9 1
    24    8   48 1
    25    8   49 1
    26    9   10 1
    27    9   50 1
    28    9   51 1
    29   10   11 1
    30   10   52 1
    31   10   53 1
    32   11   15 1
    33   11   12 1
    34   12   13 2
    35   12   54 1
    36   13   14 1
    37   13   16 1
    38   14   15 2
    39   16   17 1
    40   16   55 1
    41   16   56 1
    42   17   18 1
    43   17   57 1
    44   17   65 1
    45   18   26 1
    46   18   19 1
    47   18   58 1
    48   19   20 1
    49   19   21 1
    50   19   32 1
    51   21   22 1
    52   21   23 1
    53   21   31 1
    54   23   24 1
    55   23   30 1
    56   23   59 1
    57   24   25 1
    58   24   26 1
    59   24   29 1
    60   26   27 1
    61   26   28 1
    62   28   60 1
    63   29   61 1
    64   30   62 1
    65   31   63 1
    66   32   64 1
@<TRIPOS>MOLECULE
CHEMBL1082596__1
   64    65     0     0     0
SMALL
USER_CHARGES

@<TRIPOS>ATOM
      1 C1         -0.0187    1.5258    0.0104 C.3       1 <0>        -0.1545
      2 C2          0.0021   -0.0041    0.0020 C.3       1 <0>        -0.1260
      3 C3         -1.4333   -0.5336    0.0129 C.3       1 <0>        -0.1216
      4 C4         -1.4126   -2.0635    0.0045 C.3       1 <0>        -0.1209
      5 C5         -2.8479   -2.5931    0.0153 C.3       1 <0>        -0.1213
      6 C6         -2.8272   -4.1229    0.0069 C.3       1 <0>        -0.1200
      7 C7         -4.2626   -4.6525    0.0178 C.3       1 <0>        -0.1199
      8 C8         -4.2418   -6.1823    0.0094 C.3       1 <0>        -0.1163
      9 C9         -5.6772   -6.7119    0.0202 C.3       1 <0>        -0.1332
     10 C10        -5.6565   -8.2417    0.0118 C.3       1 <0>         0.1145
     11 N1         -7.0309   -8.7488    0.0222 N.pl3     1 <0>        -0.2904
     12 C11        -7.5640   -9.6126   -0.8725 C.2       1 <0>        -0.0487
     13 C12        -8.8472   -9.8086   -0.4890 C.2       1 <0>        -0.0138
     14 N2         -9.0338   -9.0648    0.6071 N.2       1 <0>        -0.2474
     15 N3         -7.9372   -8.4535    0.8872 N.2       1 <0>        -0.0827
     16 C13        -9.8655  -10.6907   -1.1643 C.3       1 <0>         0.1442
     17 N4         -9.8810  -12.0076   -0.5135 N.3       1 <0>        -0.6599
     18 C14       -10.8643  -12.8963   -1.1469 C.3       1 <0>         0.1152
     19 C15       -12.2441  -12.6498   -0.5334 C.3       1 <0>         0.1308
     20 H1        -12.5342  -11.6119   -0.6967 H         1 <0>         0.0655
     21 C16       -13.2683  -13.5754   -1.1931 C.3       1 <0>         0.0901
     22 H2        -14.2512  -13.3998   -0.7561 H         1 <0>         0.0612
     23 C17       -12.8611  -15.0323   -0.9640 C.3       1 <0>         0.0438
     24 C18       -11.4813  -15.2788   -1.5774 C.3       1 <0>         0.0526
     25 H3        -11.1912  -16.3167   -1.4142 H         1 <0>         0.0564
     26 C19       -10.4571  -14.3532   -0.9177 C.3       1 <0>         0.1180
     27 H4         -9.4741  -14.5287   -1.3548 H         1 <0>         0.0607
     28 O1        -10.4089  -14.6192    0.4855 O.3       1 <0>        -0.5158
     29 O2        -11.5295  -15.0127   -2.9806 O.3       1 <0>        -0.5398
     30 O3        -13.8176  -15.8968   -1.5801 O.3       1 <0>        -0.5687
     31 O4        -13.3164  -13.3094   -2.5963 O.3       1 <0>        -0.5428
     32 O5        -12.1959  -12.9159    0.8698 O.3       1 <0>        -0.5142
     33 H5          1.0039    1.9031    0.0027 H         1 <0>         0.0535
     34 H6         -0.5459    1.8868   -0.8726 H         1 <0>         0.0533
     35 H7         -0.5289    1.8773    0.9072 H         1 <0>         0.0535
     36 H8          0.5123   -0.3556   -0.8948 H         1 <0>         0.0601
     37 H9          0.5293   -0.3651    0.8851 H         1 <0>         0.0603
     38 H10        -1.9435   -0.1821    0.9097 H         1 <0>         0.0609
     39 H11        -1.9605   -0.1726   -0.8702 H         1 <0>         0.0606
     40 H12        -0.9024   -2.4150   -0.8923 H         1 <0>         0.0604
     41 H13        -0.8854   -2.4246    0.8875 H         1 <0>         0.0608
     42 H14        -3.3581   -2.2415    0.9121 H         1 <0>         0.0615
     43 H15        -3.3751   -2.2320   -0.8677 H         1 <0>         0.0608
     44 H16        -2.3170   -4.4744   -0.8899 H         1 <0>         0.0612
     45 H17        -2.3000   -4.4840    0.8900 H         1 <0>         0.0620
     46 H18        -4.7728   -4.3010    0.9146 H         1 <0>         0.0646
     47 H19        -4.7898   -4.2914   -0.8653 H         1 <0>         0.0625
     48 H20        -3.7316   -6.5338   -0.8874 H         1 <0>         0.0661
     49 H21        -3.7146   -6.5434    0.8924 H         1 <0>         0.0684
     50 H22        -6.1874   -6.3604    0.9170 H         1 <0>         0.0832
     51 H23        -6.2044   -6.3508   -0.8628 H         1 <0>         0.0712
     52 H24        -5.1463   -8.5933   -0.8850 H         1 <0>         0.1047
     53 H25        -5.1293   -8.6028    0.8949 H         1 <0>         0.1001
     54 H26        -7.0660  -10.0562   -1.7220 H         1 <0>         0.1868
     55 H27       -10.8520  -10.2341   -1.0839 H         1 <0>         0.0895
     56 H28        -9.6040  -10.8081   -2.2159 H         1 <0>         0.0481
     57 H29        -8.9618  -12.4238   -0.5177 H         1 <0>         0.3425
     58 H30       -10.9011  -12.6933   -2.2172 H         1 <0>         0.0896
     59 H31       -12.8243  -15.2353    0.1064 H         1 <0>         0.0850
     60 H32       -10.1568  -15.5265    0.7053 H         1 <0>         0.3658
     61 H33       -12.1594  -15.5645   -3.4642 H         1 <0>         0.3796
     62 H34       -13.6225  -16.8380   -1.4747 H         1 <0>         0.3825
     63 H35       -13.9464  -13.8611   -3.0798 H         1 <0>         0.3813
     64 H36       -13.0382  -12.7800    1.3250 H         1 <0>         0.3644
@<TRIPOS>BOND
     1    1    2 1
     2    1   33 1
     3    1   34 1
     4    1   35 1
     5    2    3 1
     6    2   36 1
     7    2   37 1
     8    3    4 1
     9    3   38 1
    10    3   39 1
    11    4    5 1
    12    4   40 1
    13    4   41 1
    14    5    6 1
    15    5   42 1
    16    5   43 1
    17    6    7 1
    18    6   44 1
    19    6   45 1
    20    7    8 1
    21    7   46 1
    22    7   47 1
    23    8    9 1
    24    8   48 1
    25    8   49 1
    26    9   10 1
    27    9   50 1
    28    9   51 1
    29   10   11 1
    30   10   52 1
    31   10   53 1
    32   11   15 1
    33   11   12 1
    34   12   13 2
    35   12   54 1
    36   13   14 1
    37   13   16 1
    38   14   15 2
    39   16   17 1
    40   16   55 1
    41   16   56 1
    42   17   18 1
    43   17   57 1
    44   18   26 1
    45   18   19 1
    46   18   58 1
    47   19   20 1
    48   19   21 1
    49   19   32 1
    50   21   22 1
    51   21   23 1
    52   21   31 1
    53   23   24 1
    54   23   30 1
    55   23   59 1
    56   24   25 1
    57   24   26 1
    58   24   29 1
    59   26   27 1
    60   26   28 1
    61   28   60 1
    62   29   61 1
    63   30   62 1
    64   31   63 1
    65   32   64 1
@<TRIPOS>MOLECULE
CHEMBL1090540
   39    39     0     0     0
SMALL
USER_CHARGES

@<TRIPOS>ATOM
      1 C1         -0.0187    1.5258    0.0104 C.3       1 <0>        -0.1567
      2 C2          0.0021   -0.0041    0.0020 C.3       1 <0>        -0.1272
      3 C3          0.7182   -0.4975   -1.2568 C.3       1 <0>        -0.1221
      4 C4          0.7390   -2.0273   -1.2652 C.3       1 <0>        -0.1218
      5 C5          1.4551   -2.5207   -2.5240 C.3       1 <0>        -0.1342
      6 C6          1.4758   -4.0506   -2.5324 C.3       1 <0>        -0.1422
      7 C7          2.1920   -4.5440   -3.7912 C.3       1 <0>         0.0444
      8 H1          1.7179   -4.1107   -4.6719 H         1 <0>         0.1530
      9 C8          2.1024   -6.0699   -3.8633 C.3       1 <0>         0.1036
     10 H2          1.0557   -6.3717   -3.8999 H         1 <0>         0.1080
     11 C9          2.8201   -6.5589   -5.1246 C.3       1 <0>         0.0673
     12 H3          2.8082   -7.6485   -5.1514 H         1 <0>         0.0960
     13 C10         4.2689   -6.0631   -5.1004 C.3       1 <0>         0.0574
     14 H4          4.7706   -6.3600   -6.0213 H         1 <0>         0.1037
     15 C11         4.2781   -4.5374   -4.9825 C.3       1 <0>        -0.0404
     16 N1          3.6009   -4.1352   -3.7438 N.4       1 <0>        -0.4972
     17 O1          4.9497   -6.6332   -3.9808 O.3       1 <0>        -0.5404
     18 O2          2.1569   -6.0451   -6.2814 O.3       1 <0>        -0.5496
     19 O3          2.7231   -6.6393   -2.7089 O.3       1 <0>        -0.5442
     20 H5          1.0039    1.9031    0.0027 H         1 <0>         0.0539
     21 H6         -0.5459    1.8868   -0.8726 H         1 <0>         0.0548
     22 H7         -0.5289    1.8773    0.9072 H         1 <0>         0.0580
     23 H8          0.5293   -0.3651    0.8851 H         1 <0>         0.0622
     24 H9         -1.0205   -0.3814    0.0098 H         1 <0>         0.0633
     25 H10         0.1910   -0.1364   -2.1398 H         1 <0>         0.0640
     26 H11         1.7408   -0.1202   -1.2645 H         1 <0>         0.0611
     27 H12         1.2661   -2.3884   -0.3821 H         1 <0>         0.0681
     28 H13        -0.2836   -2.4046   -1.2575 H         1 <0>         0.0715
     29 H14         0.9279   -2.1597   -3.4071 H         1 <0>         0.0783
     30 H15         2.4777   -2.1435   -2.5317 H         1 <0>         0.0554
     31 H16         2.0030   -4.4117   -1.6494 H         1 <0>         0.0972
     32 H17         0.4533   -4.4279   -2.5247 H         1 <0>         0.1117
     33 H18         5.3081   -4.1811   -4.9652 H         1 <0>         0.1368
     34 H19         3.7591   -4.1042   -5.8375 H         1 <0>         0.1434
     35 H20         3.6561   -3.1329   -3.6423 H         1 <0>         0.4270
     36 H21         5.8745   -6.3618   -3.9030 H         1 <0>         0.3939
     37 H22         2.5591   -6.3157   -7.1181 H         1 <0>         0.4001
     38 H23         2.7032   -7.6059   -2.6881 H         1 <0>         0.4066
     39 H24         4.0518   -4.5764   -2.9563 H         1 <0>         0.4353
@<TRIPOS>BOND
     1    1    2 1
     2    1   20 1
     3    1   21 1
     4    1   22 1
     5    2    3 1
     6    2   23 1
     7    2   24 1
     8    3    4 1
     9    3   25 1
    10    3   26 1
    11    4    5 1
    12    4   27 1
    13    4   28 1
    14    5    6 1
    15    5   29 1
    16    5   30 1
    17    6    7 1
    18    6   31 1
    19    6   32 1
    20    7    8 1
    21    7   16 1
    22    7    9 1
    23    9   10 1
    24    9   11 1
    25    9   19 1
    26   11   12 1
    27   11   13 1
    28   11   18 1
    29   13   14 1
    30   13   15 1
    31   13   17 1
    32   15   16 1
    33   15   33 1
    34   15   34 1
    35   16   35 1
    36   16   39 1
    37   17   36 1
    38   18   37 1
    39   19   38 1
@<TRIPOS>MOLECULE
CHEMBL406121
   42    44     0     0     0
SMALL
USER_CHARGES

@<TRIPOS>ATOM
      1 C1          0.0444    1.2312    0.1792 C.3       1 <0>        -0.1503
      2 C2          0.1363   -0.2958    0.1561 C.3       1 <0>        -0.0277
      3 C3          0.8267   -0.7384   -1.1083 C.2       1 <0>         0.0740
      4 N1          2.1064   -0.9462   -1.3465 N.2       1 <0>        -0.2555
      5 N2          2.5275   -1.3205   -2.4749 N.2       1 <0>        -0.2795
      6 C4          1.7054   -1.5286   -3.4943 C.2       1 <0>         0.2923
      7 S1          0.1418   -1.1396   -2.7132 S.3       1 <0>        -0.0312
      8 N3          1.9785   -1.9369   -4.7943 N.am      1 <0>        -0.6103
      9 C5          3.2490   -2.1843   -5.1701 C.2       1 <0>         0.5582
     10 O1          4.1563   -2.0502   -4.3717 O.2       1 <0>        -0.4579
     11 C6          3.5388   -2.6175   -6.5497 C.ar      1 <0>        -0.1453
     12 C7          2.4973   -2.7666   -7.4706 C.ar      1 <0>        -0.0656
     13 C8          2.7711   -3.1705   -8.7572 C.ar      1 <0>        -0.1342
     14 C9          4.0833   -3.4312   -9.1422 C.ar      1 <0>         0.1791
     15 C10         5.1226   -3.2842   -8.2275 C.ar      1 <0>        -0.1593
     16 C11         4.8562   -2.8746   -6.9412 C.ar      1 <0>        -0.0244
     17 N4          4.3566   -3.8397  -10.4430 N.pl3     1 <0>        -1.0565
     18 S2          5.5982   -3.1407  -11.2868 S.o2      1 <0>         2.6881
     19 O2          6.7514   -3.2304  -10.4613 O.2       1 <0>        -0.9426
     20 O3          5.5558   -3.6863  -12.5982 O.2       1 <0>        -0.9438
     21 C12         5.2223   -1.4263  -11.4422 C.ar      1 <0>        -0.6778
     22 C13         4.4065   -0.9879  -12.4685 C.ar      1 <0>        -0.0184
     23 C14         4.1115    0.3571  -12.5904 C.ar      1 <0>        -0.1397
     24 C15         4.6320    1.2636  -11.6859 C.ar      1 <0>        -0.0581
     25 C16         5.4470    0.8251  -10.6591 C.ar      1 <0>        -0.1383
     26 C17         5.7385   -0.5204  -10.5346 C.ar      1 <0>        -0.0166
     27 H1          1.0475    1.6562    0.1451 H         1 <0>         0.0651
     28 H2         -0.5250    1.5741   -0.6847 H         1 <0>         0.0593
     29 H3         -0.4549    1.5513    1.0937 H         1 <0>         0.0755
     30 H4          0.7057   -0.6387    1.0200 H         1 <0>         0.1086
     31 H5         -0.8668   -0.7208    0.1902 H         1 <0>         0.0966
     32 H6          1.2548   -2.0438   -5.4312 H         1 <0>         0.4275
     33 H7          1.4790   -2.5652   -7.1723 H         1 <0>         0.1318
     34 H8          1.9670   -3.2858   -9.4690 H         1 <0>         0.1405
     35 H9          6.1394   -3.4879   -8.5291 H         1 <0>         0.1679
     36 H10         5.6633   -2.7561   -6.2334 H         1 <0>         0.1500
     37 H11         3.8199   -4.5341  -10.8561 H         1 <0>         0.4317
     38 H12         3.9998   -1.6962  -13.1752 H         1 <0>         0.1396
     39 H13         3.4747    0.6997  -13.3926 H         1 <0>         0.1353
     40 H14         4.4021    2.3145  -11.7816 H         1 <0>         0.1334
     41 H15         5.8539    1.5334   -9.9526 H         1 <0>         0.1356
     42 H16         6.3723   -0.8635   -9.7302 H         1 <0>         0.1428
@<TRIPOS>BOND
     1    1    2 1
     2    1   27 1
     3    1   28 1
     4    1   29 1
     5    2    3 1
     6    2   30 1
     7    2   31 1
     8    3    7 1
     9    3    4 2
    10    4    5 1
    11    5    6 2
    12    6    7 1
    13    6    8 1
    14    8    9 am
    15    8   32 1
    16    9   10 2
    17    9   11 1
    18   11   16 ar
    19   11   12 ar
    20   12   13 ar
    21   12   33 1
    22   13   14 ar
    23   13   34 1
    24   14   15 ar
    25   14   17 1
    26   15   16 ar
    27   15   35 1
    28   16   36 1
    29   17   18 1
    30   17   37 1
    31   18   19 2
    32   18   20 2
    33   18   21 1
    34   21   26 ar
    35   21   22 ar
    36   22   23 ar
    37   22   38 1
    38   23   24 ar
    39   23   39 1
    40   24   25 ar
    41   24   40 1
    42   25   26 ar
    43   25   41 1
    44   26   42 1
@<TRIPOS>MOLECULE
CHEMBL406121__1
   41    43     0     0     0
SMALL
USER_CHARGES

@<TRIPOS>ATOM
      1 C1         -0.0187    1.5258    0.0104 C.3       1 <0>        -0.1494
      2 C2          0.0021   -0.0041    0.0020 C.3       1 <0>        -0.0214
      3 C3          0.7074   -0.4901   -1.2379 C.2       1 <0>         0.0507
      4 N1          1.9824   -0.7596   -1.4365 N.2       1 <0>        -0.2511
      5 N2          2.4182   -1.1636   -2.5490 N.2       1 <0>        -0.2917
      6 C4          1.6173   -1.3425   -3.5905 C.2       1 <0>         0.3208
      7 S1          0.0516   -0.8736   -2.8592 S.3       1 <0>        -0.0572
      8 N3          1.9087   -1.7751   -4.8787 N.am      1 <0>        -0.6129
      9 C5          3.1766   -2.0850   -5.2148 C.2       1 <0>         0.5687
     10 O1          4.0655   -1.9861   -4.3910 O.2       1 <0>        -0.4880
     11 C6          3.4858   -2.5440   -6.5818 C.ar      1 <0>        -0.2607
     12 C7          2.4658   -2.6527   -7.5319 C.ar      1 <0>        -0.0396
     13 C8          2.7577   -3.0809   -8.8066 C.ar      1 <0>        -0.1867
     14 C9          4.0670   -3.4062   -9.1506 C.ar      1 <0>         0.3167
     15 C10         5.0849   -3.2995   -8.2068 C.ar      1 <0>        -0.2765
     16 C11         4.8005   -2.8660   -6.9321 C.ar      1 <0>         0.0138
     17 N4          4.3585   -3.8390  -10.4395 N.2       1 <0>        -1.0768
     18 S2          5.9152   -4.2263  -10.8505 S.o2      1 <0>         2.6065
     19 O2          6.6633   -3.0196  -10.7909 O.2       1 <0>        -1.0223
     20 O3          6.2619   -5.3759  -10.0905 O.2       1 <0>        -1.0223
     21 C12         5.8990   -4.7258  -12.5402 C.ar      1 <0>        -0.6178
     22 C13         5.6941   -6.0534  -12.8665 C.ar      1 <0>        -0.0244
     23 C14         5.6813   -6.4453  -14.1921 C.ar      1 <0>        -0.1471
     24 C15         5.8730   -5.5095  -15.1913 C.ar      1 <0>        -0.0825
     25 C16         6.0770   -4.1818  -14.8650 C.ar      1 <0>        -0.1471
     26 C17         6.0855   -3.7893  -13.5396 C.ar      1 <0>        -0.0244
     27 H1          1.0039    1.9031    0.0027 H         1 <0>         0.0639
     28 H2         -0.5459    1.8868   -0.8726 H         1 <0>         0.0587
     29 H3         -0.5289    1.8773    0.9072 H         1 <0>         0.0706
     30 H4          0.5293   -0.3651    0.8851 H         1 <0>         0.1033
     31 H5         -1.0205   -0.3814    0.0098 H         1 <0>         0.0919
     32 H6          1.1997   -1.8539   -5.5359 H         1 <0>         0.4267
     33 H7          1.4499   -2.4012   -7.2654 H         1 <0>         0.1075
     34 H8          1.9703   -3.1651   -9.5409 H         1 <0>         0.1224
     35 H9          6.0994   -3.5532   -8.4765 H         1 <0>         0.1072
     36 H10         5.5914   -2.7788   -6.2018 H         1 <0>         0.1208
     37 H11         5.5443   -6.7845  -12.0858 H         1 <0>         0.1365
     38 H12         5.5219   -7.4826  -14.4470 H         1 <0>         0.1265
     39 H13         5.8637   -5.8158  -16.2269 H         1 <0>         0.1237
     40 H14         6.2271   -3.4508  -15.6457 H         1 <0>         0.1265
     41 H15         6.2412   -2.7513  -13.2848 H         1 <0>         0.1365
@<TRIPOS>BOND
     1    1    2 1
     2    1   27 1
     3    1   28 1
     4    1   29 1
     5    2    3 1
     6    2   30 1
     7    2   31 1
     8    3    7 1
     9    3    4 2
    10    4    5 1
    11    5    6 2
    12    6    7 1
    13    6    8 1
    14    8    9 am
    15    8   32 1
    16    9   10 2
    17    9   11 1
    18   11   16 ar
    19   11   12 ar
    20   12   13 ar
    21   12   33 1
    22   13   14 ar
    23   13   34 1
    24   14   15 ar
    25   14   17 1
    26   15   16 ar
    27   15   35 1
    28   16   36 1
    29   17   18 1
    30   18   19 2
    31   18   20 2
    32   18   21 1
    33   21   26 ar
    34   21   22 ar
    35   22   23 ar
    36   22   37 1
    37   23   24 ar
    38   23   38 1
    39   24   25 ar
    40   24   39 1
    41   25   26 ar
    42   25   40 1
    43   26   41 1
@<TRIPOS>MOLECULE
CHEMBL1091214
   48    48     0     0     0
SMALL
USER_CHARGES

@<TRIPOS>ATOM
      1 C1         -0.0187    1.5258    0.0104 C.3       1 <0>        -0.1557
      2 C2          0.0021   -0.0041    0.0020 C.3       1 <0>        -0.1260
      3 C3          0.7421   -0.5109    1.2415 C.3       1 <0>        -0.1221
      4 C4          0.7628   -2.0407    1.2331 C.3       1 <0>        -0.1211
      5 C5          1.5028   -2.5476    2.4727 C.3       1 <0>        -0.1223
      6 C6          1.5236   -4.0774    2.4642 C.3       1 <0>        -0.1214
      7 C7          2.2636   -4.5842    3.7038 C.3       1 <0>        -0.1212
      8 C8          2.2843   -6.1141    3.6954 C.3       1 <0>        -0.1342
      9 C9          3.0243   -6.6209    4.9349 C.3       1 <0>        -0.1422
     10 C10         3.0450   -8.1508    4.9265 C.3       1 <0>         0.0444
     11 H1          2.0253   -8.5271    4.8446 H         1 <0>         0.1530
     12 C11         3.6728   -8.6589    6.2262 C.3       1 <0>         0.1036
     13 H2          3.0854   -8.3090    7.0751 H         1 <0>         0.1079
     14 C12         3.6911  -10.1901    6.2133 C.3       1 <0>         0.0673
     15 H3          4.1884  -10.5563    7.1115 H         1 <0>         0.0960
     16 C13         4.4519  -10.6713    4.9744 C.3       1 <0>         0.0574
     17 H4          4.4215  -11.7599    4.9286 H         1 <0>         0.1037
     18 C14         3.7953  -10.0886    3.7211 C.3       1 <0>        -0.0403
     19 N1          3.8334   -8.6225    3.7817 N.4       1 <0>        -0.4972
     20 O1          5.8105  -10.2346    5.0493 O.3       1 <0>        -0.5404
     21 O2          2.3506  -10.6837    6.1743 O.3       1 <0>        -0.5496
     22 O3          5.0095   -8.1657    6.3352 O.3       1 <0>        -0.5441
     23 H5          1.0039    1.9031    0.0027 H         1 <0>         0.0540
     24 H6         -0.5459    1.8868   -0.8726 H         1 <0>         0.0556
     25 H7         -0.5289    1.8773    0.9072 H         1 <0>         0.0542
     26 H8         -1.0205   -0.3814    0.0098 H         1 <0>         0.0607
     27 H9          0.5123   -0.3556   -0.8948 H         1 <0>         0.0602
     28 H10         1.7647   -0.1336    1.2338 H         1 <0>         0.0613
     29 H11         0.2319   -0.1594    2.1383 H         1 <0>         0.0618
     30 H12        -0.2598   -2.4180    1.2409 H         1 <0>         0.0614
     31 H13         1.2730   -2.3923    0.3363 H         1 <0>         0.0605
     32 H14         2.5254   -2.1703    2.4649 H         1 <0>         0.0623
     33 H15         0.9926   -2.1961    3.3695 H         1 <0>         0.0634
     34 H16         0.5010   -4.4547    2.4720 H         1 <0>         0.0638
     35 H17         2.0337   -4.4289    1.5675 H         1 <0>         0.0610
     36 H18         3.2861   -4.2070    3.6960 H         1 <0>         0.0679
     37 H19         1.7534   -4.2327    4.6006 H         1 <0>         0.0714
     38 H20         1.2617   -6.4914    3.7031 H         1 <0>         0.0782
     39 H21         2.7945   -6.4656    2.7986 H         1 <0>         0.0553
     40 H22         4.0469   -6.2436    4.9271 H         1 <0>         0.0972
     41 H23         2.5141   -6.2694    5.8317 H         1 <0>         0.1116
     42 H24         4.3345  -10.4294    2.8372 H         1 <0>         0.1368
     43 H25         2.7595  -10.4232    3.6652 H         1 <0>         0.1434
     44 H26         3.4487   -8.2420    2.9301 H         1 <0>         0.4269
     45 H27         6.3525  -10.5045    4.2954 H         1 <0>         0.3939
     46 H28         2.2869  -11.6486    6.1642 H         1 <0>         0.4001
     47 H29         5.4692   -8.4492    7.1373 H         1 <0>         0.4066
     48 H30         4.7891   -8.3153    3.8834 H         1 <0>         0.4353
@<TRIPOS>BOND
     1    1    2 1
     2    1   23 1
     3    1   24 1
     4    1   25 1
     5    2    3 1
     6    2   26 1
     7    2   27 1
     8    3    4 1
     9    3   28 1
    10    3   29 1
    11    4    5 1
    12    4   30 1
    13    4   31 1
    14    5    6 1
    15    5   32 1
    16    5   33 1
    17    6    7 1
    18    6   34 1
    19    6   35 1
    20    7    8 1
    21    7   36 1
    22    7   37 1
    23    8    9 1
    24    8   38 1
    25    8   39 1
    26    9   10 1
    27    9   40 1
    28    9   41 1
    29   10   11 1
    30   10   19 1
    31   10   12 1
    32   12   13 1
    33   12   14 1
    34   12   22 1
    35   14   15 1
    36   14   16 1
    37   14   21 1
    38   16   17 1
    39   16   18 1
    40   16   20 1
    41   18   19 1
    42   18   42 1
    43   18   43 1
    44   19   44 1
    45   19   48 1
    46   20   45 1
    47   21   46 1
    48   22   47 1
@<TRIPOS>MOLECULE
CHEMBL316609
   43    44     0     0     0
SMALL
USER_CHARGES

@<TRIPOS>ATOM
      1 C1         -0.0187    1.5258    0.0104 C.3       1 <0>        -0.1477
      2 C2          0.0021   -0.0041    0.0020 C.3       1 <0>        -0.0757
      3 C3         -1.4333   -0.5336    0.0129 C.3       1 <0>        -0.1369
      4 C4         -1.4126   -2.0635    0.0045 C.3       1 <0>         0.0363
      5 C5         -0.6726   -2.5703    1.2440 C.3       1 <0>         0.0990
      6 C6          0.7628   -2.0407    1.2331 C.3       1 <0>         0.0442
      7 C7          0.7421   -0.5109    1.2415 C.3       1 <0>         0.0771
      8 O1          2.0827   -0.0163    1.2314 O.3       1 <0>        -0.5524
      9 O2          1.4540   -2.5141    2.3908 O.3       1 <0>        -0.5592
     10 O3         -1.3414   -2.1095    2.4197 O.3       1 <0>        -0.5641
     11 N1         -2.7907   -2.5720    0.0149 N.4       1 <0>        -0.5027
     12 C8         -2.7738   -4.0352   -0.1138 C.3       1 <0>        -0.0113
     13 C9         -4.2092   -4.5648   -0.1030 C.3       1 <0>        -0.0983
     14 C10        -4.1918   -6.0659   -0.2350 C.ar      1 <0>        -0.1095
     15 C11        -4.2256   -6.6500   -1.4875 C.ar      1 <0>        -0.1102
     16 C12        -4.2096   -8.0269   -1.6086 C.ar      1 <0>        -0.1142
     17 C13        -4.1594   -8.8198   -0.4774 C.ar      1 <0>        -0.1037
     18 C14        -4.1247   -8.2356    0.7750 C.ar      1 <0>        -0.1140
     19 C15        -4.1363   -6.8586    0.8960 C.ar      1 <0>        -0.1098
     20 H1          1.0039    1.9031    0.0027 H         1 <0>         0.0763
     21 H2         -0.5459    1.8868   -0.8726 H         1 <0>         0.0634
     22 H3         -0.5289    1.8773    0.9072 H         1 <0>         0.0603
     23 H4          0.5123   -0.3556   -0.8948 H         1 <0>         0.0891
     24 H5         -1.9435   -0.1821    0.9097 H         1 <0>         0.1028
     25 H6         -1.9605   -0.1726   -0.8702 H         1 <0>         0.0998
     26 H7         -0.9024   -2.4150   -0.8923 H         1 <0>         0.1528
     27 H8         -0.6578   -3.6602    1.2380 H         1 <0>         0.0901
     28 H9          1.2730   -2.3923    0.3363 H         1 <0>         0.0817
     29 H10         0.2319   -0.1594    2.1383 H         1 <0>         0.0791
     30 H11         2.6119   -0.2986    1.9899 H         1 <0>         0.3835
     31 H12         2.3722   -2.2166    2.4498 H         1 <0>         0.3968
     32 H13        -0.9262   -2.3937    3.2454 H         1 <0>         0.4137
     33 H14        -3.2372   -2.3158    0.8827 H         1 <0>         0.4357
     34 H15        -2.2915   -4.3119   -1.0514 H         1 <0>         0.1341
     35 H16        -2.2209   -4.4670    0.7204 H         1 <0>         0.1323
     36 H17        -4.6914   -4.2881    0.8345 H         1 <0>         0.0965
     37 H18        -4.7620   -4.1330   -0.9372 H         1 <0>         0.0965
     38 H19        -4.2648   -6.0305   -2.3713 H         1 <0>         0.1244
     39 H20        -4.2368   -8.4833   -2.5871 H         1 <0>         0.1297
     40 H21        -4.1477   -9.8955   -0.5720 H         1 <0>         0.1300
     41 H22        -4.0858   -8.8551    1.6589 H         1 <0>         0.1296
     42 H23        -4.1054   -6.4022    1.8744 H         1 <0>         0.1242
     43 H24        -3.3025   -2.1723   -0.7574 H         1 <0>         0.4308
@<TRIPOS>BOND
     1    1    2 1
     2    1   20 1
     3    1   21 1
     4    1   22 1
     5    2    7 1
     6    2    3 1
     7    2   23 1
     8    3    4 1
     9    3   24 1
    10    3   25 1
    11    4    5 1
    12    4   11 1
    13    4   26 1
    14    5    6 1
    15    5   10 1
    16    5   27 1
    17    6    7 1
    18    6    9 1
    19    6   28 1
    20    7    8 1
    21    7   29 1
    22    8   30 1
    23    9   31 1
    24   10   32 1
    25   11   12 1
    26   11   33 1
    27   11   43 1
    28   12   13 1
    29   12   34 1
    30   12   35 1
    31   13   14 1
    32   13   36 1
    33   13   37 1
    34   14   19 ar
    35   14   15 ar
    36   15   16 ar
    37   15   38 1
    38   16   17 ar
    39   16   39 1
    40   17   18 ar
    41   17   40 1
    42   18   19 ar
    43   18   41 1
    44   19   42 1
@<TRIPOS>MOLECULE
CHEMBL260582
   43    45     0     0     0
SMALL
USER_CHARGES

@<TRIPOS>ATOM
      1 C1          0.0230  -10.7177    2.9585 C.3       1 <0>        -0.1276
      2 C2          0.0407   -9.3820    2.2610 C.ar      1 <0>        -0.0234
      3 C3         -0.1525   -8.2210    2.9861 C.ar      1 <0>        -0.1415
      4 C4         -0.1362   -6.9958    2.3463 C.ar      1 <0>        -0.0117
      5 C5          0.0737   -6.9314    0.9815 C.ar      1 <0>        -0.6845
      6 C6          0.2678   -8.0924    0.2566 C.ar      1 <0>        -0.0137
      7 C7          0.2558   -9.3173    0.8971 C.ar      1 <0>        -0.1425
      8 S1          0.0933   -5.3698    0.1658 S.o2      1 <0>         2.6880
      9 O1         -0.3571   -5.5995   -1.1622 O.2       1 <0>        -0.9473
     10 O2         -0.5457   -4.4479    1.0381 O.2       1 <0>        -0.9436
     11 N1          1.6761   -4.8959    0.0534 N.pl3     1 <0>        -1.0658
     12 C8          2.3998   -4.6105    1.2058 C.ar      1 <0>         0.1589
     13 C9          2.1677   -3.4238    1.8959 C.ar      1 <0>        -0.1101
     14 C10         2.8826   -3.1382    3.0364 C.ar      1 <0>        -0.0398
     15 C11         3.8426   -4.0415    3.5024 C.ar      1 <0>        -0.1318
     16 C12         4.0730   -5.2326    2.8074 C.ar      1 <0>        -0.0758
     17 C13         3.3511   -5.5147    1.6704 C.ar      1 <0>        -0.1174
     18 C14         4.6109   -3.7384    4.7242 C.2       1 <0>         0.5737
     19 O3          4.4098   -2.7019    5.3274 O.2       1 <0>        -0.4958
     20 N2          5.5360   -4.6102    5.1722 N.am      1 <0>        -0.6309
     21 C15         6.2623   -4.3236    6.3272 C.2       1 <0>         0.3322
     22 C16         6.1300   -3.1665    7.1274 C.2       1 <0>        -0.2872
     23 C17         7.0015   -3.2622    8.1469 C.2       1 <0>         0.0814
     24 O4          7.6685   -4.4201    8.0204 O.3       1 <0>        -0.0689
     25 N3          7.1836   -5.0811    6.8656 N.2       1 <0>        -0.3527
     26 C18         7.1959   -2.2453    9.2421 C.3       1 <0>        -0.0894
     27 H1          1.0308  -10.9681    3.2897 H         1 <0>         0.0809
     28 H2         -0.6412  -10.6683    3.8214 H         1 <0>         0.0743
     29 H3         -0.3335  -11.4830    2.2690 H         1 <0>         0.0743
     30 H4         -0.3165   -8.2713    4.0524 H         1 <0>         0.1339
     31 H5         -0.2879   -6.0888    2.9127 H         1 <0>         0.1414
     32 H6          0.4315   -8.0421   -0.8098 H         1 <0>         0.1396
     33 H7          0.4112  -10.2241    0.3313 H         1 <0>         0.1343
     34 H8          2.0983   -4.8174   -0.8163 H         1 <0>         0.4303
     35 H9          1.4260   -2.7264    1.5354 H         1 <0>         0.1485
     36 H10         2.7026   -2.2171    3.5708 H         1 <0>         0.1496
     37 H11         4.8139   -5.9324    3.1649 H         1 <0>         0.1335
     38 H12         3.5257   -6.4365    1.1354 H         1 <0>         0.1400
     39 H13         5.6965   -5.4370    4.6910 H         1 <0>         0.4214
     40 H14         5.4480   -2.3479    6.9508 H         1 <0>         0.1831
     41 H15         6.5280   -2.4738   10.0726 H         1 <0>         0.0964
     42 H16         8.2292   -2.2764    9.5876 H         1 <0>         0.0884
     43 H17         6.9710   -1.2503    8.8581 H         1 <0>         0.0976
@<TRIPOS>BOND
     1    1    2 1
     2    1   27 1
     3    1   28 1
     4    1   29 1
     5    2    7 ar
     6    2    3 ar
     7    3    4 ar
     8    3   30 1
     9    4    5 ar
    10    4   31 1
    11    5    6 ar
    12    5    8 1
    13    6    7 ar
    14    6   32 1
    15    7   33 1
    16    8    9 2
    17    8   10 2
    18    8   11 1
    19   11   12 1
    20   11   34 1
    21   12   17 ar
    22   12   13 ar
    23   13   14 ar
    24   13   35 1
    25   14   15 ar
    26   14   36 1
    27   15   16 ar
    28   15   18 1
    29   16   17 ar
    30   16   37 1
    31   17   38 1
    32   18   19 2
    33   18   20 am
    34   20   21 1
    35   20   39 1
    36   21   25 2
    37   21   22 1
    38   22   23 2
    39   22   40 1
    40   23   24 1
    41   23   26 1
    42   24   25 1
    43   26   41 1
    44   26   42 1
    45   26   43 1
@<TRIPOS>MOLECULE
CHEMBL260582__1
   42    44     0     0     0
SMALL
USER_CHARGES

@<TRIPOS>ATOM
      1 C1         -0.0184    1.5028    0.0103 C.3       1 <0>        -0.1167
      2 C2          0.0021   -0.0041    0.0020 C.ar      1 <0>        -0.0514
      3 C3          0.0057   -0.6887   -1.1989 C.ar      1 <0>        -0.1475
      4 C4          0.0245   -2.0709   -1.2065 C.ar      1 <0>        -0.0198
      5 C5          0.0400   -2.7685   -0.0132 C.ar      1 <0>        -0.6230
      6 C6          0.0373   -2.0839    1.1877 C.ar      1 <0>        -0.0199
      7 C7          0.0229   -0.7016    1.1953 C.ar      1 <0>        -0.1474
      8 S1          0.0628   -4.5303   -0.0229 S.o2      1 <0>         2.6075
      9 O1         -0.4759   -4.9503    1.2232 O.2       1 <0>        -1.0232
     10 O2         -0.4897   -4.9367   -1.2674 O.2       1 <0>        -1.0233
     11 N1          1.6509   -4.9994   -0.0343 N.2       1 <0>        -1.0767
     12 C8          1.9764   -6.3512   -0.0434 C.ar      1 <0>         0.3173
     13 C9          0.9660   -7.3090   -0.0487 C.ar      1 <0>        -0.2781
     14 C10         1.2849   -8.6475   -0.0573 C.ar      1 <0>         0.0137
     15 C11         2.6253   -9.0453   -0.0612 C.ar      1 <0>        -0.2649
     16 C12         3.6376   -8.0809   -0.0563 C.ar      1 <0>        -0.0372
     17 C13         3.3121   -6.7439   -0.0529 C.ar      1 <0>        -0.1879
     18 C14         2.9706  -10.4791   -0.0699 C.2       1 <0>         0.5850
     19 O3          2.0892  -11.3167   -0.0738 O.2       1 <0>        -0.5304
     20 N2          4.2631  -10.8609   -0.0736 N.am      1 <0>        -0.6374
     21 C15         4.5896  -12.2163   -0.0818 C.2       1 <0>         0.3422
     22 C16         3.6737  -13.2924   -0.0927 C.2       1 <0>        -0.2792
     23 C17         4.3768  -14.4387   -0.0986 C.2       1 <0>         0.0650
     24 O4          5.6828  -14.1289   -0.0919 O.3       1 <0>        -0.0808
     25 N3          5.7983  -12.7175   -0.0866 N.2       1 <0>        -0.3653
     26 C18         3.7985  -15.8302   -0.1107 C.3       1 <0>        -0.0838
     27 H1          1.0042    1.8801    0.0026 H         1 <0>         0.0734
     28 H2         -0.5455    1.8639   -0.8728 H         1 <0>         0.0674
     29 H3         -0.5286    1.8543    0.9071 H         1 <0>         0.0674
     30 H4         -0.0064   -0.1436   -2.1312 H         1 <0>         0.1260
     31 H5          0.0266   -2.6057   -2.1448 H         1 <0>         0.1366
     32 H6          0.0491   -2.6289    2.1200 H         1 <0>         0.1366
     33 H7          0.0245   -0.1667    2.1335 H         1 <0>         0.1260
     34 H8         -0.0691   -7.0011   -0.0458 H         1 <0>         0.1067
     35 H9          0.5007   -9.3901   -0.0608 H         1 <0>         0.1200
     36 H10         4.6739   -8.3850   -0.0592 H         1 <0>         0.1090
     37 H11         4.0936   -5.9985   -0.0532 H         1 <0>         0.1222
     38 H12         4.9663  -10.1927   -0.0705 H         1 <0>         0.4197
     39 H13         2.5970  -13.2088   -0.0955 H         1 <0>         0.1828
     40 H14         3.6625  -16.1583   -1.1412 H         1 <0>         0.0916
     41 H15         4.4791  -16.5110    0.4006 H         1 <0>         0.0835
     42 H16         2.8354  -15.8279    0.3999 H         1 <0>         0.0944
@<TRIPOS>BOND
     1    1    2 1
     2    1   27 1
     3    1   28 1
     4    1   29 1
     5    2    7 ar
     6    2    3 ar
     7    3    4 ar
     8    3   30 1
     9    4    5 ar
    10    4   31 1
    11    5    6 ar
    12    5    8 1
    13    6    7 ar
    14    6   32 1
    15    7   33 1
    16    8    9 2
    17    8   10 2
    18    8   11 1
    19   11   12 1
    20   12   17 ar
    21   12   13 ar
    22   13   14 ar
    23   13   34 1
    24   14   15 ar
    25   14   35 1
    26   15   16 ar
    27   15   18 1
    28   16   17 ar
    29   16   36 1
    30   17   37 1
    31   18   19 2
    32   18   20 am
    33   20   21 1
    34   20   38 1
    35   21   25 2
    36   21   22 1
    37   22   23 2
    38   22   39 1
    39   23   24 1
    40   23   26 1
    41   24   25 1
    42   26   40 1
    43   26   41 1
    44   26   42 1
@<TRIPOS>MOLECULE
CHEMBL86865
   32    34     0     0     0
SMALL
USER_CHARGES

@<TRIPOS>ATOM
      1 C1         -0.0167    1.3793    0.0096 C.ar      1 <0>        -0.1429
      2 C2          1.1683    2.0935    0.0021 C.ar      1 <0>        -0.0984
      3 C3          2.3774    1.4294   -0.0130 C.ar      1 <0>        -0.1210
      4 C4          2.4035    0.0338   -0.0208 C.ar      1 <0>         0.1361
      5 C5          1.2043   -0.6806   -0.0131 C.ar      1 <0>        -0.1820
      6 C6          0.0021   -0.0041    0.0020 C.ar      1 <0>        -0.0984
      7 N1          3.6012   -0.6322   -0.0362 N.2       1 <0>        -0.5546
      8 C7          3.7919   -1.6563    0.7589 C.2       1 <0>         0.5718
      9 N2          2.8479   -2.1317    1.6324 N.pl3     1 <0>        -0.7640
     10 C8          3.2656   -3.5077    1.9848 C.3       1 <0>         0.1145
     11 C9          2.7509   -4.4661    0.8993 C.3       1 <0>         0.0958
     12 C10         3.9577   -5.2475    0.3632 C.3       1 <0>         0.0352
     13 C11         5.1931   -4.7628    1.1362 C.3       1 <0>         0.0709
     14 C12         4.8018   -3.4200    1.7716 C.3       1 <0>         0.0775
     15 O1          4.9356   -2.3661    0.8077 O.3       1 <0>        -0.2511
     16 O2          6.2923   -4.5810    0.2414 O.3       1 <0>        -0.5308
     17 O3          4.1244   -4.9876   -1.0320 O.3       1 <0>        -0.5416
     18 O4          1.7988   -5.3706    1.4626 O.3       1 <0>        -0.5532
     19 H1         -0.9605    1.9041    0.0260 H         1 <0>         0.1215
     20 H2          1.1467    3.1733    0.0078 H         1 <0>         0.1255
     21 H3          3.3017    1.9880   -0.0192 H         1 <0>         0.1273
     22 H4          1.2176   -1.7605   -0.0191 H         1 <0>         0.1186
     23 H5         -0.9265   -0.5556    0.0079 H         1 <0>         0.1205
     24 H6          2.9840   -3.7981    2.9970 H         1 <0>         0.1421
     25 H7          2.2901   -3.8973    0.0917 H         1 <0>         0.0859
     26 H8          3.8118   -6.3149    0.5291 H         1 <0>         0.0820
     27 H9          5.4557   -5.4820    1.9119 H         1 <0>         0.0942
     28 H10         5.3433   -3.2249    2.6973 H         1 <0>         0.1308
     29 H11         6.5684   -5.3894   -0.2118 H         1 <0>         0.3799
     30 H12         4.8719   -5.4526   -1.4322 H         1 <0>         0.3823
     31 H13         1.4346   -6.0035    0.8286 H         1 <0>         0.3889
     32 H14         2.0634   -1.6609    1.9547 H         1 <0>         0.4364
@<TRIPOS>BOND
     1    1    6 ar
     2    1    2 ar
     3    1   19 1
     4    2    3 ar
     5    2   20 1
     6    3    4 ar
     7    3   21 1
     8    4    5 ar
     9    4    7 1
    10    5    6 ar
    11    5   22 1
    12    6   23 1
    13    7    8 2
    14    8   15 1
    15    8    9 1
    16    9   10 1
    17    9   32 1
    18   10   14 1
    19   10   11 1
    20   10   24 1
    21   11   12 1
    22   11   18 1
    23   11   25 1
    24   12   13 1
    25   12   17 1
    26   12   26 1
    27   13   14 1
    28   13   16 1
    29   13   27 1
    30   14   15 1
    31   14   28 1
    32   16   29 1
    33   17   30 1
    34   18   31 1
@<TRIPOS>MOLECULE
CHEMBL86865__1
   33    35     0     0     0
SMALL
USER_CHARGES

@<TRIPOS>ATOM
      1 C1          0.0151    1.4022    0.3329 C.ar      1 <0>        -0.0993
      2 C2          0.2013    0.2080    1.0049 C.ar      1 <0>        -0.0896
      3 C3          1.3956   -0.4750    0.8844 C.ar      1 <0>        -0.1140
      4 C4          2.4102    0.0387    0.0873 C.ar      1 <0>         0.0868
      5 C5          2.2201    1.2383   -0.5863 C.ar      1 <0>        -0.1123
      6 C6          1.0234    1.9164   -0.4616 C.ar      1 <0>        -0.0924
      7 N1          3.6212   -0.6503   -0.0365 N.pl3     1 <0>        -0.5788
      8 C7          3.6449   -2.0218    0.0596 C.cat     1 <0>         0.6637
      9 N2          4.7429   -2.7072    0.1508 N.pl3     1 <0>        -0.6398
     10 C8          4.3927   -4.1416    0.2331 C.3       1 <0>         0.0990
     11 C9          4.3306   -4.5405    1.7162 C.3       1 <0>         0.0961
     12 C10         2.9447   -5.1438    1.9770 C.3       1 <0>         0.0327
     13 C11         2.1810   -5.1227    0.6452 C.3       1 <0>         0.0753
     14 C12         2.9180   -4.1256   -0.2594 C.3       1 <0>         0.0720
     15 O1          2.5284   -2.7789    0.0737 O.3       1 <0>        -0.2308
     16 O2          0.8356   -4.6906    0.8579 O.3       1 <0>        -0.5334
     17 O3          2.2487   -4.3607    2.9489 O.3       1 <0>        -0.5449
     18 O4          5.3421   -5.5090    2.0003 O.3       1 <0>        -0.5461
     19 H1         -0.9214    1.9321    0.4252 H         1 <0>         0.1395
     20 H2         -0.5880   -0.1908    1.6249 H         1 <0>         0.1405
     21 H3          1.5405   -1.4074    1.4098 H         1 <0>         0.1382
     22 H4          3.0073    1.6406   -1.2067 H         1 <0>         0.1379
     23 H5          0.8748    2.8491   -0.9855 H         1 <0>         0.1429
     24 H6          4.4444   -0.1607   -0.1902 H         1 <0>         0.4496
     25 H7          5.0428   -4.7789   -0.3663 H         1 <0>         0.1808
     26 H8          4.4742   -3.6598    2.3422 H         1 <0>         0.0944
     27 H9          3.0474   -6.1702    2.3293 H         1 <0>         0.0995
     28 H10         2.1890   -6.1146    0.1934 H         1 <0>         0.1146
     29 H11         2.8174   -4.3617   -1.3187 H         1 <0>         0.1618
     30 H12         0.3251   -5.2671    1.4429 H         1 <0>         0.3957
     31 H13         1.3640   -4.6898    3.1588 H         1 <0>         0.3931
     32 H14         5.3572   -5.8035    2.9213 H         1 <0>         0.4046
     33 H15         5.6410   -2.3409    0.1626 H         1 <0>         0.4628
@<TRIPOS>BOND
     1    1    6 ar
     2    1    2 ar
     3    1   19 1
     4    2    3 ar
     5    2   20 1
     6    3    4 ar
     7    3   21 1
     8    4    5 ar
     9    4    7 1
    10    5    6 ar
    11    5   22 1
    12    6   23 1
    13    7    8 1
    14    7   24 1
    15    8   15 1
    16    8    9 2
    17    9   10 1
    18    9   33 1
    19   10   14 1
    20   10   11 1
    21   10   25 1
    22   11   12 1
    23   11   18 1
    24   11   26 1
    25   12   13 1
    26   12   17 1
    27   12   27 1
    28   13   14 1
    29   13   16 1
    30   13   28 1
    31   14   15 1
    32   14   29 1
    33   16   30 1
    34   17   31 1
    35   18   32 1
@<TRIPOS>MOLECULE
CHEMBL59041
   77    78     0     0     0
SMALL
USER_CHARGES

@<TRIPOS>ATOM
      1 C1         -0.0187    1.5258    0.0104 C.3       1 <0>        -0.1550
      2 C2          0.0021   -0.0041    0.0020 C.3       1 <0>        -0.1264
      3 C3         -1.4333   -0.5336    0.0129 C.3       1 <0>        -0.1210
      4 C4         -1.4126   -2.0635    0.0045 C.3       1 <0>        -0.1218
      5 C5         -2.8479   -2.5931    0.0153 C.3       1 <0>        -0.1200
      6 C6         -2.8272   -4.1229    0.0069 C.3       1 <0>        -0.1202
      7 C7         -4.2626   -4.6525    0.0178 C.3       1 <0>        -0.1199
      8 C8         -4.2418   -6.1823    0.0094 C.3       1 <0>        -0.1045
      9 C9         -5.6772   -6.7119    0.0202 C.3       1 <0>        -0.1404
     10 C10        -5.6568   -8.2187    0.0119 C.2       1 <0>         0.5145
     11 O1         -4.5984   -8.8108   -0.0014 O.2       1 <0>        -0.4885
     12 N1         -6.8147   -8.9084    0.0193 N.am      1 <0>        -0.7598
     13 C11        -6.7948  -10.3733    0.0112 C.3       1 <0>         0.0948
     14 H1         -5.9426  -10.7283    0.5907 H         1 <0>         0.1229
     15 C12        -8.0892  -10.9043    0.6304 C.3       1 <0>        -0.0204
     16 N2         -8.2633  -10.3282    1.9705 N.4       1 <0>        -0.4996
     17 C13        -9.5062  -10.8381    2.5650 C.3       1 <0>         0.0870
     18 C14       -10.6767  -10.3618    1.7556 C.2       1 <0>        -0.1907
     19 C15       -11.7786   -9.9151    2.2673 C.2       1 <0>        -0.0778
     20 C16       -12.0355   -9.8011    3.7414 C.3       1 <0>         0.1049
     21 C17       -11.0321  -10.6557    4.5189 C.3       1 <0>         0.0927
     22 C18        -9.6225  -10.3360    4.0058 C.3       1 <0>         0.0942
     23 O2         -9.4076   -8.9237    4.0412 O.3       1 <0>        -0.5626
     24 O3        -11.3169  -12.0403    4.3100 O.3       1 <0>        -0.5540
     25 O4        -13.3617  -10.2502    4.0271 O.3       1 <0>        -0.5536
     26 C19       -12.8711   -9.4820    1.3240 C.3       1 <0>         0.0940
     27 O5        -12.4365   -9.6660   -0.0248 O.3       1 <0>        -0.5717
     28 C20        -6.6759  -10.8738   -1.4297 C.3       1 <0>         0.1457
     29 H2         -6.6611  -11.9637   -1.4357 H         1 <0>         0.1244
     30 C21        -5.4009  -10.3508   -2.0396 C.ar      1 <0>        -0.1146
     31 C22        -5.3437   -9.0544   -2.5160 C.ar      1 <0>        -0.1047
     32 C23        -4.1742   -8.5746   -3.0755 C.ar      1 <0>        -0.1088
     33 C24        -3.0618   -9.3911   -3.1580 C.ar      1 <0>        -0.1036
     34 C25        -3.1187  -10.6872   -2.6807 C.ar      1 <0>        -0.1092
     35 C26        -4.2869  -11.1655   -2.1174 C.ar      1 <0>        -0.0980
     36 O6         -7.7932  -10.4084   -2.1893 O.3       1 <0>        -0.5437
     37 H3          1.0039    1.9031    0.0027 H         1 <0>         0.0549
     38 H4         -0.5459    1.8868   -0.8726 H         1 <0>         0.0537
     39 H5         -0.5289    1.8773    0.9072 H         1 <0>         0.0534
     40 H6          0.5123   -0.3556   -0.8948 H         1 <0>         0.0607
     41 H7          0.5293   -0.3651    0.8851 H         1 <0>         0.0604
     42 H8         -1.9435   -0.1821    0.9097 H         1 <0>         0.0604
     43 H9         -1.9605   -0.1726   -0.8702 H         1 <0>         0.0608
     44 H10        -0.9024   -2.4150   -0.8923 H         1 <0>         0.0613
     45 H11        -0.8854   -2.4246    0.8875 H         1 <0>         0.0609
     46 H12        -3.3581   -2.2415    0.9121 H         1 <0>         0.0604
     47 H13        -3.3751   -2.2320   -0.8677 H         1 <0>         0.0610
     48 H14        -2.3170   -4.4744   -0.8899 H         1 <0>         0.0626
     49 H15        -2.3000   -4.4840    0.8900 H         1 <0>         0.0618
     50 H16        -4.7728   -4.3010    0.9146 H         1 <0>         0.0614
     51 H17        -4.7898   -4.2914   -0.8653 H         1 <0>         0.0627
     52 H18        -3.7316   -6.5338   -0.8874 H         1 <0>         0.0730
     53 H19        -3.7146   -6.5434    0.8924 H         1 <0>         0.0694
     54 H20        -6.1874   -6.3604    0.9170 H         1 <0>         0.0939
     55 H21        -6.2044   -6.3508   -0.8628 H         1 <0>         0.0961
     56 H22        -7.6612   -8.4349    0.0299 H         1 <0>         0.4007
     57 H23        -8.9344  -10.6239    0.0018 H         1 <0>         0.1496
     58 H24        -8.0371  -11.9904    0.7058 H         1 <0>         0.1505
     59 H25        -7.4810  -10.5878    2.5524 H         1 <0>         0.4285
     60 H26        -9.4873  -11.9279    2.5625 H         1 <0>         0.1650
     61 H27       -10.5944  -10.3934    0.6792 H         1 <0>         0.1508
     62 H28       -11.9355   -8.7594    4.0461 H         1 <0>         0.0919
     63 H29       -11.0971  -10.4213    5.5814 H         1 <0>         0.0910
     64 H30        -8.8828  -10.8380    4.6295 H         1 <0>         0.1035
     65 H31        -9.4671   -8.5389    4.9263 H         1 <0>         0.4114
     66 H32       -12.2005  -12.3079    4.5977 H         1 <0>         0.4066
     67 H33       -14.0532   -9.7466    3.5761 H         1 <0>         0.3932
     68 H34       -13.7641  -10.0809    1.5029 H         1 <0>         0.0747
     69 H35       -13.0999   -8.4295    1.4916 H         1 <0>         0.0718
     70 H36       -13.0912   -9.4072   -0.6878 H         1 <0>         0.3980
     71 H37        -6.2128   -8.4165   -2.4516 H         1 <0>         0.1078
     72 H38        -4.1297   -7.5620   -3.4484 H         1 <0>         0.1202
     73 H39        -2.1483   -9.0165   -3.5957 H         1 <0>         0.1230
     74 H40        -2.2497  -11.3251   -2.7454 H         1 <0>         0.1238
     75 H41        -4.3303  -12.1769   -1.7411 H         1 <0>         0.1192
     76 H42        -7.8692   -9.4451   -2.2272 H         1 <0>         0.3754
     77 H43        -8.3116   -9.3228    1.9007 H         1 <0>         0.4301
@<TRIPOS>BOND
     1    1    2 1
     2    1   37 1
     3    1   38 1
     4    1   39 1
     5    2    3 1
     6    2   40 1
     7    2   41 1
     8    3    4 1
     9    3   42 1
    10    3   43 1
    11    4    5 1
    12    4   44 1
    13    4   45 1
    14    5    6 1
    15    5   46 1
    16    5   47 1
    17    6    7 1
    18    6   48 1
    19    6   49 1
    20    7    8 1
    21    7   50 1
    22    7   51 1
    23    8    9 1
    24    8   52 1
    25    8   53 1
    26    9   10 1
    27    9   54 1
    28    9   55 1
    29   10   11 2
    30   10   12 am
    31   12   13 1
    32   12   56 1
    33   13   14 1
    34   13   15 1
    35   13   28 1
    36   15   16 1
    37   15   57 1
    38   15   58 1
    39   16   17 1
    40   16   59 1
    41   16   77 1
    42   17   22 1
    43   17   18 1
    44   17   60 1
    45   18   19 2
    46   18   61 1
    47   19   20 1
    48   19   26 1
    49   20   21 1
    50   20   25 1
    51   20   62 1
    52   21   22 1
    53   21   24 1
    54   21   63 1
    55   22   23 1
    56   22   64 1
    57   23   65 1
    58   24   66 1
    59   25   67 1
    60   26   27 1
    61   26   68 1
    62   26   69 1
    63   27   70 1
    64   28   29 1
    65   28   30 1
    66   28   36 1
    67   30   35 ar
    68   30   31 ar
    69   31   32 ar
    70   31   71 1
    71   32   33 ar
    72   32   72 1
    73   33   34 ar
    74   33   73 1
    75   34   35 ar
    76   34   74 1
    77   35   75 1
    78   36   76 1
@<TRIPOS>MOLECULE
CHEMBL59041__1
   76    77     0     0     0
SMALL
USER_CHARGES

@<TRIPOS>ATOM
      1 C1         -0.0187    1.5258    0.0104 C.3       1 <0>        -0.1542
      2 C2          0.0021   -0.0041    0.0020 C.3       1 <0>        -0.1264
      3 C3          0.7182   -0.4975   -1.2568 C.3       1 <0>        -0.1209
      4 C4          0.7390   -2.0273   -1.2652 C.3       1 <0>        -0.1217
      5 C5          1.4551   -2.5207   -2.5240 C.3       1 <0>        -0.1200
      6 C6          1.4758   -4.0506   -2.5324 C.3       1 <0>        -0.1203
      7 C7          2.1920   -4.5440   -3.7912 C.3       1 <0>        -0.1200
      8 C8          2.2127   -6.0738   -3.7996 C.3       1 <0>        -0.1037
      9 C9          2.9289   -6.5673   -5.0584 C.3       1 <0>        -0.1406
     10 C10         2.9493   -8.0741   -5.0667 C.2       1 <0>         0.5055
     11 O1          2.4411   -8.6925   -4.1555 O.2       1 <0>        -0.5285
     12 N1          3.5323   -8.7345   -6.0867 N.am      1 <0>        -0.7164
     13 C11         3.5522  -10.1994   -6.0948 C.3       1 <0>         0.1236
     14 H1          2.6300  -10.5777   -5.6537 H         1 <0>         0.0954
     15 C12         3.6711  -10.6999   -7.5357 C.3       1 <0>         0.0482
     16 N2          2.5886  -10.1243   -8.3449 N.3       1 <0>        -0.6655
     17 C13         2.6710  -10.5839   -9.7377 C.3       1 <0>         0.1308
     18 C14         3.6334   -9.7142  -10.4924 C.2       1 <0>        -0.0759
     19 C15         3.4234   -9.2693  -11.6897 C.2       1 <0>        -0.1745
     20 C16         2.1836   -9.5524  -12.4864 C.3       1 <0>         0.1244
     21 C17         1.4324  -10.7433  -11.8872 C.3       1 <0>         0.0891
     22 C18         1.2830  -10.5131  -10.3782 C.3       1 <0>         0.1115
     23 O2          0.7108   -9.2249  -10.1434 O.3       1 <0>        -0.5347
     24 O3          2.1721  -11.9438  -12.1192 O.3       1 <0>        -0.5509
     25 O4          2.5458   -9.8513  -13.8361 O.3       1 <0>        -0.5650
     26 C19         4.4902   -8.4136  -12.3227 C.3       1 <0>         0.1121
     27 O5          5.5810   -8.2611  -11.4123 O.3       1 <0>        -0.5669
     28 C20         4.7485  -10.6977   -5.2814 C.3       1 <0>         0.1398
     29 H2          5.6706  -10.3194   -5.7225 H         1 <0>         0.0635
     30 C21         4.7689  -12.2045   -5.2897 C.ar      1 <0>        -0.0844
     31 C22         3.9359  -12.9117   -4.4431 C.ar      1 <0>        -0.0887
     32 C23         3.9546  -14.2939   -4.4506 C.ar      1 <0>        -0.1230
     33 C24         4.8060  -14.9689   -5.3052 C.ar      1 <0>        -0.1156
     34 C25         5.6384  -14.2617   -6.1526 C.ar      1 <0>        -0.1219
     35 C26         5.6166  -12.8795   -6.1480 C.ar      1 <0>        -0.1094
     36 O6          4.6374  -10.2302   -3.9356 O.3       1 <0>        -0.5436
     37 H3          1.0039    1.9031    0.0027 H         1 <0>         0.0532
     38 H4         -0.5459    1.8868   -0.8726 H         1 <0>         0.0531
     39 H5         -0.5289    1.8773    0.9072 H         1 <0>         0.0533
     40 H6          0.5293   -0.3651    0.8851 H         1 <0>         0.0604
     41 H7         -1.0205   -0.3814    0.0098 H         1 <0>         0.0603
     42 H8          0.1910   -0.1364   -2.1398 H         1 <0>         0.0603
     43 H9          1.7408   -0.1202   -1.2645 H         1 <0>         0.0603
     44 H10         1.2661   -2.3884   -0.3821 H         1 <0>         0.0609
     45 H11        -0.2836   -2.4046   -1.2575 H         1 <0>         0.0607
     46 H12         0.9279   -2.1597   -3.4071 H         1 <0>         0.0602
     47 H13         2.4777   -2.1435   -2.5317 H         1 <0>         0.0603
     48 H14         2.0030   -4.4117   -1.6494 H         1 <0>         0.0620
     49 H15         0.4533   -4.4279   -2.5247 H         1 <0>         0.0617
     50 H16         1.6648   -4.1829   -4.6743 H         1 <0>         0.0613
     51 H17         3.2146   -4.1667   -3.7990 H         1 <0>         0.0613
     52 H18         2.7399   -6.4349   -2.9166 H         1 <0>         0.0694
     53 H19         1.1901   -6.4511   -3.7919 H         1 <0>         0.0690
     54 H20         2.4017   -6.2062   -5.9415 H         1 <0>         0.0940
     55 H21         3.9515   -6.1900   -5.0662 H         1 <0>         0.0911
     56 H22         3.9388   -8.2400   -6.8155 H         1 <0>         0.4066
     57 H23         4.6335  -10.3962   -7.9476 H         1 <0>         0.0801
     58 H24         3.5966  -11.7872   -7.5499 H         1 <0>         0.0519
     59 H25         1.6865  -10.3378   -7.9464 H         1 <0>         0.3475
     60 H26         3.0260  -11.6142   -9.7578 H         1 <0>         0.0775
     61 H27         4.5586   -9.4423  -10.0061 H         1 <0>         0.1236
     62 H28         1.5378   -8.6744  -12.4738 H         1 <0>         0.0745
     63 H29         0.4464  -10.8226  -12.3451 H         1 <0>         0.0683
     64 H30         0.6427  -11.2851   -9.9513 H         1 <0>         0.0708
     65 H31        -0.1712   -9.1112  -10.5232 H         1 <0>         0.3770
     66 H32         2.3177  -12.1415  -13.0545 H         1 <0>         0.3907
     67 H33         3.0173   -9.1358  -14.2844 H         1 <0>         0.3829
     68 H34         4.8437   -8.8906  -13.2368 H         1 <0>         0.0550
     69 H35         4.0761   -7.4338  -12.5609 H         1 <0>         0.0529
     70 H36         6.3061   -7.7204  -11.7543 H         1 <0>         0.3829
     71 H37         3.2707  -12.3843   -3.7754 H         1 <0>         0.1281
     72 H38         3.3043  -14.8464   -3.7887 H         1 <0>         0.1230
     73 H39         4.8212  -16.0488   -5.3107 H         1 <0>         0.1221
     74 H40         6.3038  -14.7891   -6.8200 H         1 <0>         0.1236
     75 H41         6.2642  -12.3271   -6.8126 H         1 <0>         0.1213
     76 H42         4.6184   -9.2668   -3.8542 H         1 <0>         0.3755
@<TRIPOS>BOND
     1    1    2 1
     2    1   37 1
     3    1   38 1
     4    1   39 1
     5    2    3 1
     6    2   40 1
     7    2   41 1
     8    3    4 1
     9    3   42 1
    10    3   43 1
    11    4    5 1
    12    4   44 1
    13    4   45 1
    14    5    6 1
    15    5   46 1
    16    5   47 1
    17    6    7 1
    18    6   48 1
    19    6   49 1
    20    7    8 1
    21    7   50 1
    22    7   51 1
    23    8    9 1
    24    8   52 1
    25    8   53 1
    26    9   10 1
    27    9   54 1
    28    9   55 1
    29   10   11 2
    30   10   12 am
    31   12   13 1
    32   12   56 1
    33   13   14 1
    34   13   15 1
    35   13   28 1
    36   15   16 1
    37   15   57 1
    38   15   58 1
    39   16   17 1
    40   16   59 1
    41   17   22 1
    42   17   18 1
    43   17   60 1
    44   18   19 2
    45   18   61 1
    46   19   20 1
    47   19   26 1
    48   20   21 1
    49   20   25 1
    50   20   62 1
    51   21   22 1
    52   21   24 1
    53   21   63 1
    54   22   23 1
    55   22   64 1
    56   23   65 1
    57   24   66 1
    58   25   67 1
    59   26   27 1
    60   26   68 1
    61   26   69 1
    62   27   70 1
    63   28   29 1
    64   28   30 1
    65   28   36 1
    66   30   35 ar
    67   30   31 ar
    68   31   32 ar
    69   31   71 1
    70   32   33 ar
    71   32   72 1
    72   33   34 ar
    73   33   73 1
    74   34   35 ar
    75   34   74 1
    76   35   75 1
    77   36   76 1
@<TRIPOS>MOLECULE
CHEMBL59041__2
   77    78     0     0     0
SMALL
USER_CHARGES

@<TRIPOS>ATOM
      1 C1         -0.0187    1.5258    0.0104 C.3       1 <0>        -0.1550
      2 C2          0.0021   -0.0041    0.0020 C.3       1 <0>        -0.1264
      3 C3         -1.4333   -0.5336    0.0129 C.3       1 <0>        -0.1210
      4 C4         -1.4126   -2.0635    0.0045 C.3       1 <0>        -0.1219
      5 C5         -2.8479   -2.5931    0.0153 C.3       1 <0>        -0.1199
      6 C6         -2.8272   -4.1229    0.0069 C.3       1 <0>        -0.1203
      7 C7         -4.2626   -4.6525    0.0178 C.3       1 <0>        -0.1197
      8 C8         -4.2418   -6.1823    0.0094 C.3       1 <0>        -0.1050
      9 C9         -5.6772   -6.7119    0.0202 C.3       1 <0>        -0.1401
     10 C10        -5.6568   -8.2187    0.0119 C.2       1 <0>         0.5133
     11 O1         -4.5984   -8.8108   -0.0014 O.2       1 <0>        -0.4863
     12 N1         -6.8147   -8.9084    0.0193 N.am      1 <0>        -0.7609
     13 C11        -6.7948  -10.3733    0.0112 C.3       1 <0>         0.0944
     14 H1         -5.9426  -10.7283    0.5907 H         1 <0>         0.1238
     15 C12        -8.0892  -10.9043    0.6304 C.3       1 <0>        -0.0185
     16 N2         -8.2633  -10.3282    1.9705 N.4       1 <0>        -0.5024
     17 C13        -9.5062  -10.8381    2.5650 C.3       1 <0>         0.0837
     18 C14       -10.6767  -10.3618    1.7556 C.2       1 <0>        -0.1910
     19 C15       -11.7786   -9.9151    2.2673 C.2       1 <0>        -0.0857
     20 C16       -12.0355   -9.8011    3.7414 C.3       1 <0>         0.0998
     21 C17       -11.0321  -10.6557    4.5189 C.3       1 <0>         0.0932
     22 C18        -9.6225  -10.3360    4.0058 C.3       1 <0>         0.0972
     23 O2         -8.6528  -10.9941    4.8235 O.3       1 <0>        -0.5534
     24 O3        -11.3169  -12.0403    4.3100 O.3       1 <0>        -0.5473
     25 O4        -13.3617  -10.2502    4.0271 O.3       1 <0>        -0.5489
     26 C19       -12.8711   -9.4820    1.3240 C.3       1 <0>         0.0939
     27 O5        -12.4365   -9.6660   -0.0248 O.3       1 <0>        -0.5719
     28 C20        -6.6759  -10.8738   -1.4297 C.3       1 <0>         0.1458
     29 H2         -6.6611  -11.9637   -1.4357 H         1 <0>         0.1248
     30 C21        -5.4009  -10.3508   -2.0396 C.ar      1 <0>        -0.1148
     31 C22        -5.3437   -9.0544   -2.5160 C.ar      1 <0>        -0.1050
     32 C23        -4.1742   -8.5746   -3.0755 C.ar      1 <0>        -0.1090
     33 C24        -3.0618   -9.3911   -3.1580 C.ar      1 <0>        -0.1035
     34 C25        -3.1187  -10.6872   -2.6807 C.ar      1 <0>        -0.1090
     35 C26        -4.2869  -11.1655   -2.1174 C.ar      1 <0>        -0.0977
     36 O6         -7.7932  -10.4084   -2.1893 O.3       1 <0>        -0.5435
     37 H3          1.0039    1.9031    0.0027 H         1 <0>         0.0549
     38 H4         -0.5459    1.8868   -0.8726 H         1 <0>         0.0537
     39 H5         -0.5289    1.8773    0.9072 H         1 <0>         0.0534
     40 H6          0.5123   -0.3556   -0.8948 H         1 <0>         0.0608
     41 H7          0.5293   -0.3651    0.8851 H         1 <0>         0.0605
     42 H8         -1.9435   -0.1821    0.9097 H         1 <0>         0.0604
     43 H9         -1.9605   -0.1726   -0.8702 H         1 <0>         0.0608
     44 H10        -0.9024   -2.4150   -0.8923 H         1 <0>         0.0614
     45 H11        -0.8854   -2.4246    0.8875 H         1 <0>         0.0610
     46 H12        -3.3581   -2.2415    0.9121 H         1 <0>         0.0603
     47 H13        -3.3751   -2.2320   -0.8677 H         1 <0>         0.0610
     48 H14        -2.3170   -4.4744   -0.8899 H         1 <0>         0.0628
     49 H15        -2.3000   -4.4840    0.8900 H         1 <0>         0.0620
     50 H16        -4.7728   -4.3010    0.9146 H         1 <0>         0.0612
     51 H17        -4.7898   -4.2914   -0.8653 H         1 <0>         0.0628
     52 H18        -3.7316   -6.5338   -0.8874 H         1 <0>         0.0734
     53 H19        -3.7146   -6.5434    0.8924 H         1 <0>         0.0696
     54 H20        -6.1874   -6.3604    0.9170 H         1 <0>         0.0930
     55 H21        -6.2044   -6.3508   -0.8628 H         1 <0>         0.0965
     56 H22        -7.6612   -8.4349    0.0299 H         1 <0>         0.3997
     57 H23        -8.9344  -10.6239    0.0018 H         1 <0>         0.1498
     58 H24        -8.0371  -11.9904    0.7058 H         1 <0>         0.1516
     59 H25        -7.4810  -10.5878    2.5524 H         1 <0>         0.4363
     60 H26        -9.4873  -11.9279    2.5625 H         1 <0>         0.1647
     61 H27       -10.5944  -10.3934    0.6792 H         1 <0>         0.1573
     62 H28       -11.9355   -8.7594    4.0461 H         1 <0>         0.0904
     63 H29       -11.0971  -10.4213    5.5814 H         1 <0>         0.0919
     64 H30        -9.4585   -9.2587    4.0328 H         1 <0>         0.0949
     65 H31        -8.6711  -10.7223    5.7514 H         1 <0>         0.4083
     66 H32       -12.2005  -12.3079    4.5977 H         1 <0>         0.4019
     67 H33       -14.0532   -9.7466    3.5761 H         1 <0>         0.3940
     68 H34       -13.7641  -10.0809    1.5029 H         1 <0>         0.0768
     69 H35       -13.0999   -8.4295    1.4916 H         1 <0>         0.0734
     70 H36       -13.0912   -9.4072   -0.6878 H         1 <0>         0.3993
     71 H37        -6.2128   -8.4165   -2.4516 H         1 <0>         0.1077
     72 H38        -4.1297   -7.5620   -3.4484 H         1 <0>         0.1201
     73 H39        -2.1483   -9.0165   -3.5957 H         1 <0>         0.1231
     74 H40        -2.2497  -11.3251   -2.7454 H         1 <0>         0.1240
     75 H41        -4.3303  -12.1769   -1.7411 H         1 <0>         0.1195
     76 H42        -7.8692   -9.4451   -2.2272 H         1 <0>         0.3750
     77 H43        -8.3116   -9.3228    1.9007 H         1 <0>         0.4193
@<TRIPOS>BOND
     1    1    2 1
     2    1   37 1
     3    1   38 1
     4    1   39 1
     5    2    3 1
     6    2   40 1
     7    2   41 1
     8    3    4 1
     9    3   42 1
    10    3   43 1
    11    4    5 1
    12    4   44 1
    13    4   45 1
    14    5    6 1
    15    5   46 1
    16    5   47 1
    17    6    7 1
    18    6   48 1
    19    6   49 1
    20    7    8 1
    21    7   50 1
    22    7   51 1
    23    8    9 1
    24    8   52 1
    25    8   53 1
    26    9   10 1
    27    9   54 1
    28    9   55 1
    29   10   11 2
    30   10   12 am
    31   12   13 1
    32   12   56 1
    33   13   14 1
    34   13   15 1
    35   13   28 1
    36   15   16 1
    37   15   57 1
    38   15   58 1
    39   16   17 1
    40   16   59 1
    41   16   77 1
    42   17   22 1
    43   17   18 1
    44   17   60 1
    45   18   19 2
    46   18   61 1
    47   19   20 1
    48   19   26 1
    49   20   21 1
    50   20   25 1
    51   20   62 1
    52   21   22 1
    53   21   24 1
    54   21   63 1
    55   22   23 1
    56   22   64 1
    57   23   65 1
    58   24   66 1
    59   25   67 1
    60   26   27 1
    61   26   68 1
    62   26   69 1
    63   27   70 1
    64   28   29 1
    65   28   30 1
    66   28   36 1
    67   30   35 ar
    68   30   31 ar
    69   31   32 ar
    70   31   71 1
    71   32   33 ar
    72   32   72 1
    73   33   34 ar
    74   33   73 1
    75   34   35 ar
    76   34   74 1
    77   35   75 1
    78   36   76 1
@<TRIPOS>MOLECULE
CHEMBL59041__3
   76    77     0     0     0
SMALL
USER_CHARGES

@<TRIPOS>ATOM
      1 C1         -0.0187    1.5258    0.0104 C.3       1 <0>        -0.1542
      2 C2          0.0021   -0.0041    0.0020 C.3       1 <0>        -0.1264
      3 C3          0.7182   -0.4975   -1.2568 C.3       1 <0>        -0.1209
      4 C4          0.7390   -2.0273   -1.2652 C.3       1 <0>        -0.1218
      5 C5          1.4551   -2.5207   -2.5240 C.3       1 <0>        -0.1199
      6 C6          1.4758   -4.0506   -2.5324 C.3       1 <0>        -0.1205
      7 C7          2.1920   -4.5440   -3.7912 C.3       1 <0>        -0.1198
      8 C8          2.2127   -6.0738   -3.7996 C.3       1 <0>        -0.1042
      9 C9          2.9289   -6.5673   -5.0584 C.3       1 <0>        -0.1404
     10 C10         2.9493   -8.0741   -5.0667 C.2       1 <0>         0.5041
     11 O1          2.4411   -8.6925   -4.1555 O.2       1 <0>        -0.5266
     12 N1          3.5323   -8.7345   -6.0867 N.am      1 <0>        -0.7179
     13 C11         3.5522  -10.1994   -6.0948 C.3       1 <0>         0.1226
     14 H1          2.6300  -10.5777   -5.6537 H         1 <0>         0.0965
     15 C12         3.6711  -10.6999   -7.5357 C.3       1 <0>         0.0513
     16 N2          2.5886  -10.1243   -8.3449 N.3       1 <0>        -0.6761
     17 C13         2.6710  -10.5839   -9.7377 C.3       1 <0>         0.1290
     18 C14         3.6334   -9.7142  -10.4924 C.2       1 <0>        -0.0775
     19 C15         3.4234   -9.2693  -11.6897 C.2       1 <0>        -0.1824
     20 C16         2.1836   -9.5524  -12.4864 C.3       1 <0>         0.1191
     21 C17         1.4324  -10.7433  -11.8872 C.3       1 <0>         0.0901
     22 C18         1.2830  -10.5131  -10.3782 C.3       1 <0>         0.1118
     23 O2          0.4436  -11.5252   -9.8186 O.3       1 <0>        -0.5535
     24 O3          2.1721  -11.9438  -12.1192 O.3       1 <0>        -0.5441
     25 O4          2.5458   -9.8513  -13.8361 O.3       1 <0>        -0.5601
     26 C19         4.4902   -8.4136  -12.3227 C.3       1 <0>         0.1120
     27 O5          5.5810   -8.2611  -11.4123 O.3       1 <0>        -0.5671
     28 C20         4.7485  -10.6977   -5.2814 C.3       1 <0>         0.1405
     29 H2          5.6706  -10.3194   -5.7225 H         1 <0>         0.0634
     30 C21         4.7689  -12.2045   -5.2897 C.ar      1 <0>        -0.0850
     31 C22         3.9359  -12.9117   -4.4431 C.ar      1 <0>        -0.0882
     32 C23         3.9546  -14.2939   -4.4506 C.ar      1 <0>        -0.1226
     33 C24         4.8060  -14.9689   -5.3052 C.ar      1 <0>        -0.1151
     34 C25         5.6384  -14.2617   -6.1526 C.ar      1 <0>        -0.1217
     35 C26         5.6166  -12.8795   -6.1480 C.ar      1 <0>        -0.1093
     36 O6          4.6374  -10.2302   -3.9356 O.3       1 <0>        -0.5433
     37 H3          1.0039    1.9031    0.0027 H         1 <0>         0.0532
     38 H4         -0.5459    1.8868   -0.8726 H         1 <0>         0.0531
     39 H5         -0.5289    1.8773    0.9072 H         1 <0>         0.0533
     40 H6          0.5293   -0.3651    0.8851 H         1 <0>         0.0604
     41 H7         -1.0205   -0.3814    0.0098 H         1 <0>         0.0603
     42 H8          0.1910   -0.1364   -2.1398 H         1 <0>         0.0602
     43 H9          1.7408   -0.1202   -1.2645 H         1 <0>         0.0603
     44 H10         1.2661   -2.3884   -0.3821 H         1 <0>         0.0610
     45 H11        -0.2836   -2.4046   -1.2575 H         1 <0>         0.0608
     46 H12         0.9279   -2.1597   -3.4071 H         1 <0>         0.0601
     47 H13         2.4777   -2.1435   -2.5317 H         1 <0>         0.0603
     48 H14         2.0030   -4.4117   -1.6494 H         1 <0>         0.0622
     49 H15         0.4533   -4.4279   -2.5247 H         1 <0>         0.0618
     50 H16         1.6648   -4.1829   -4.6743 H         1 <0>         0.0610
     51 H17         3.2146   -4.1667   -3.7990 H         1 <0>         0.0614
     52 H18         2.7399   -6.4349   -2.9166 H         1 <0>         0.0699
     53 H19         1.1901   -6.4511   -3.7919 H         1 <0>         0.0691
     54 H20         2.4017   -6.2062   -5.9415 H         1 <0>         0.0931
     55 H21         3.9515   -6.1900   -5.0662 H         1 <0>         0.0916
     56 H22         3.9388   -8.2400   -6.8155 H         1 <0>         0.4058
     57 H23         4.6335  -10.3962   -7.9476 H         1 <0>         0.0795
     58 H24         3.5966  -11.7872   -7.5499 H         1 <0>         0.0551
     59 H25         1.6865  -10.3378   -7.9464 H         1 <0>         0.3520
     60 H26         3.0260  -11.6142   -9.7578 H         1 <0>         0.0774
     61 H27         4.5586   -9.4423  -10.0061 H         1 <0>         0.1303
     62 H28         1.5378   -8.6744  -12.4738 H         1 <0>         0.0722
     63 H29         0.4464  -10.8226  -12.3451 H         1 <0>         0.0695
     64 H30         0.8465   -9.5305  -10.1991 H         1 <0>         0.0820
     65 H31        -0.4530  -11.5371  -10.1806 H         1 <0>         0.3836
     66 H32         2.3177  -12.1415  -13.0545 H         1 <0>         0.3854
     67 H33         3.0173   -9.1358  -14.2844 H         1 <0>         0.3837
     68 H34         4.8437   -8.8906  -13.2368 H         1 <0>         0.0572
     69 H35         4.0761   -7.4338  -12.5609 H         1 <0>         0.0544
     70 H36         6.3061   -7.7204  -11.7543 H         1 <0>         0.3843
     71 H37         3.2707  -12.3843   -3.7754 H         1 <0>         0.1280
     72 H38         3.3043  -14.8464   -3.7887 H         1 <0>         0.1231
     73 H39         4.8212  -16.0488   -5.3107 H         1 <0>         0.1222
     74 H40         6.3038  -14.7891   -6.8200 H         1 <0>         0.1235
     75 H41         6.2642  -12.3271   -6.8126 H         1 <0>         0.1210
     76 H42         4.6184   -9.2668   -3.8542 H         1 <0>         0.3750
@<TRIPOS>BOND
     1    1    2 1
     2    1   37 1
     3    1   38 1
     4    1   39 1
     5    2    3 1
     6    2   40 1
     7    2   41 1
     8    3    4 1
     9    3   42 1
    10    3   43 1
    11    4    5 1
    12    4   44 1
    13    4   45 1
    14    5    6 1
    15    5   46 1
    16    5   47 1
    17    6    7 1
    18    6   48 1
    19    6   49 1
    20    7    8 1
    21    7   50 1
    22    7   51 1
    23    8    9 1
    24    8   52 1
    25    8   53 1
    26    9   10 1
    27    9   54 1
    28    9   55 1
    29   10   11 2
    30   10   12 am
    31   12   13 1
    32   12   56 1
    33   13   14 1
    34   13   15 1
    35   13   28 1
    36   15   16 1
    37   15   57 1
    38   15   58 1
    39   16   17 1
    40   16   59 1
    41   17   22 1
    42   17   18 1
    43   17   60 1
    44   18   19 2
    45   18   61 1
    46   19   20 1
    47   19   26 1
    48   20   21 1
    49   20   25 1
    50   20   62 1
    51   21   22 1
    52   21   24 1
    53   21   63 1
    54   22   23 1
    55   22   64 1
    56   23   65 1
    57   24   66 1
    58   25   67 1
    59   26   27 1
    60   26   68 1
    61   26   69 1
    62   27   70 1
    63   28   29 1
    64   28   30 1
    65   28   36 1
    66   30   35 ar
    67   30   31 ar
    68   31   32 ar
    69   31   71 1
    70   32   33 ar
    71   32   72 1
    72   33   34 ar
    73   33   73 1
    74   34   35 ar
    75   34   74 1
    76   35   75 1
    77   36   76 1
@<TRIPOS>MOLECULE
CHEMBL59041__4
   77    78     0     0     0
SMALL
USER_CHARGES

@<TRIPOS>ATOM
      1 C1         -0.0187    1.5258    0.0104 C.3       1 <0>        -0.1550
      2 C2          0.0021   -0.0041    0.0020 C.3       1 <0>        -0.1264
      3 C3         -1.4333   -0.5336    0.0129 C.3       1 <0>        -0.1211
      4 C4         -1.4126   -2.0635    0.0045 C.3       1 <0>        -0.1218
      5 C5         -2.8479   -2.5931    0.0153 C.3       1 <0>        -0.1201
      6 C6         -2.8272   -4.1229    0.0069 C.3       1 <0>        -0.1201
      7 C7         -4.2626   -4.6525    0.0178 C.3       1 <0>        -0.1200
      8 C8         -4.2418   -6.1823    0.0094 C.3       1 <0>        -0.1044
      9 C9         -5.6772   -6.7119    0.0202 C.3       1 <0>        -0.1406
     10 C10        -5.6568   -8.2187    0.0119 C.2       1 <0>         0.5148
     11 O1         -4.5984   -8.8108   -0.0014 O.2       1 <0>        -0.4882
     12 N1         -6.8147   -8.9084    0.0193 N.am      1 <0>        -0.7602
     13 C11        -6.7948  -10.3733    0.0112 C.3       1 <0>         0.0946
     14 H1         -5.9426  -10.7283    0.5907 H         1 <0>         0.1234
     15 C12        -8.0892  -10.9043    0.6304 C.3       1 <0>        -0.0210
     16 N2         -8.2633  -10.3282    1.9705 N.4       1 <0>        -0.4968
     17 C13        -9.5062  -10.8381    2.5650 C.3       1 <0>         0.0824
     18 C14       -10.6767  -10.3618    1.7556 C.2       1 <0>        -0.2040
     19 C15       -11.7786   -9.9151    2.2673 C.2       1 <0>        -0.0734
     20 C16       -12.0359   -9.8020    3.7414 C.3       1 <0>         0.1041
     21 C17       -11.0323  -10.6565    4.5187 C.3       1 <0>         0.0924
     22 C18        -9.6225  -10.3360    4.0058 C.3       1 <0>         0.0957
     23 O2         -9.4076   -8.9237    4.0412 O.3       1 <0>        -0.5671
     24 O3        -11.1179  -10.3500    5.9118 O.3       1 <0>        -0.5546
     25 O4        -13.3619  -10.2518    4.0266 O.3       1 <0>        -0.5537
     26 C19       -12.8711   -9.4820    1.3240 C.3       1 <0>         0.0930
     27 O5        -12.4365   -9.6660   -0.0248 O.3       1 <0>        -0.5719
     28 C20        -6.6759  -10.8738   -1.4297 C.3       1 <0>         0.1460
     29 H2         -6.6611  -11.9637   -1.4357 H         1 <0>         0.1244
     30 C21        -5.4009  -10.3508   -2.0396 C.ar      1 <0>        -0.1151
     31 C22        -5.3437   -9.0544   -2.5160 C.ar      1 <0>        -0.1046
     32 C23        -4.1742   -8.5746   -3.0755 C.ar      1 <0>        -0.1087
     33 C24        -3.0618   -9.3911   -3.1580 C.ar      1 <0>        -0.1033
     34 C25        -3.1187  -10.6872   -2.6807 C.ar      1 <0>        -0.1092
     35 C26        -4.2869  -11.1655   -2.1174 C.ar      1 <0>        -0.0979
     36 O6         -7.7932  -10.4084   -2.1893 O.3       1 <0>        -0.5440
     37 H3          1.0039    1.9031    0.0027 H         1 <0>         0.0549
     38 H4         -0.5459    1.8868   -0.8726 H         1 <0>         0.0537
     39 H5         -0.5289    1.8773    0.9072 H         1 <0>         0.0534
     40 H6          0.5123   -0.3556   -0.8948 H         1 <0>         0.0607
     41 H7          0.5293   -0.3651    0.8851 H         1 <0>         0.0605
     42 H8         -1.9435   -0.1821    0.9097 H         1 <0>         0.0605
     43 H9         -1.9605   -0.1726   -0.8702 H         1 <0>         0.0608
     44 H10        -0.9024   -2.4150   -0.8923 H         1 <0>         0.0613
     45 H11        -0.8854   -2.4246    0.8875 H         1 <0>         0.0609
     46 H12        -3.3581   -2.2415    0.9121 H         1 <0>         0.0604
     47 H13        -3.3751   -2.2320   -0.8677 H         1 <0>         0.0610
     48 H14        -2.3170   -4.4744   -0.8899 H         1 <0>         0.0626
     49 H15        -2.3000   -4.4840    0.8900 H         1 <0>         0.0619
     50 H16        -4.7728   -4.3010    0.9146 H         1 <0>         0.0616
     51 H17        -4.7898   -4.2914   -0.8653 H         1 <0>         0.0627
     52 H18        -3.7316   -6.5338   -0.8874 H         1 <0>         0.0729
     53 H19        -3.7146   -6.5434    0.8924 H         1 <0>         0.0695
     54 H20        -6.1874   -6.3604    0.9170 H         1 <0>         0.0942
     55 H21        -6.2044   -6.3508   -0.8628 H         1 <0>         0.0962
     56 H22        -7.6612   -8.4349    0.0299 H         1 <0>         0.4009
     57 H23        -8.9344  -10.6239    0.0018 H         1 <0>         0.1505
     58 H24        -8.0371  -11.9904    0.7058 H         1 <0>         0.1512
     59 H25        -7.4810  -10.5878    2.5524 H         1 <0>         0.4301
     60 H26        -9.4873  -11.9279    2.5625 H         1 <0>         0.1610
     61 H27       -10.5944  -10.3934    0.6792 H         1 <0>         0.1548
     62 H28       -11.9364   -8.7604    4.0467 H         1 <0>         0.0955
     63 H29       -11.2490  -11.7127    4.3587 H         1 <0>         0.0875
     64 H30        -8.8828  -10.8380    4.6295 H         1 <0>         0.1038
     65 H31        -9.4671   -8.5389    4.9263 H         1 <0>         0.4160
     66 H32       -11.9892  -10.5141    6.2978 H         1 <0>         0.4062
     67 H33       -14.0535   -9.7484    3.5757 H         1 <0>         0.3920
     68 H34       -13.7641  -10.0809    1.5029 H         1 <0>         0.0769
     69 H35       -13.0999   -8.4295    1.4916 H         1 <0>         0.0745
     70 H36       -13.0912   -9.4072   -0.6878 H         1 <0>         0.3992
     71 H37        -6.2128   -8.4165   -2.4516 H         1 <0>         0.1078
     72 H38        -4.1297   -7.5620   -3.4484 H         1 <0>         0.1203
     73 H39        -2.1483   -9.0165   -3.5957 H         1 <0>         0.1231
     74 H40        -2.2497  -11.3251   -2.7454 H         1 <0>         0.1239
     75 H41        -4.3303  -12.1769   -1.7411 H         1 <0>         0.1191
     76 H42        -7.8692   -9.4451   -2.2272 H         1 <0>         0.3757
     77 H43        -8.3116   -9.3228    1.9007 H         1 <0>         0.4327
@<TRIPOS>BOND
     1    1    2 1
     2    1   37 1
     3    1   38 1
     4    1   39 1
     5    2    3 1
     6    2   40 1
     7    2   41 1
     8    3    4 1
     9    3   42 1
    10    3   43 1
    11    4    5 1
    12    4   44 1
    13    4   45 1
    14    5    6 1
    15    5   46 1
    16    5   47 1
    17    6    7 1
    18    6   48 1
    19    6   49 1
    20    7    8 1
    21    7   50 1
    22    7   51 1
    23    8    9 1
    24    8   52 1
    25    8   53 1
    26    9   10 1
    27    9   54 1
    28    9   55 1
    29   10   11 2
    30   10   12 am
    31   12   13 1
    32   12   56 1
    33   13   14 1
    34   13   15 1
    35   13   28 1
    36   15   16 1
    37   15   57 1
    38   15   58 1
    39   16   17 1
    40   16   59 1
    41   16   77 1
    42   17   22 1
    43   17   18 1
    44   17   60 1
    45   18   19 2
    46   18   61 1
    47   19   20 1
    48   19   26 1
    49   20   21 1
    50   20   25 1
    51   20   62 1
    52   21   22 1
    53   21   24 1
    54   21   63 1
    55   22   23 1
    56   22   64 1
    57   23   65 1
    58   24   66 1
    59   25   67 1
    60   26   27 1
    61   26   68 1
    62   26   69 1
    63   27   70 1
    64   28   29 1
    65   28   30 1
    66   28   36 1
    67   30   35 ar
    68   30   31 ar
    69   31   32 ar
    70   31   71 1
    71   32   33 ar
    72   32   72 1
    73   33   34 ar
    74   33   73 1
    75   34   35 ar
    76   34   74 1
    77   35   75 1
    78   36   76 1
@<TRIPOS>MOLECULE
CHEMBL59041__5
   76    77     0     0     0
SMALL
USER_CHARGES

@<TRIPOS>ATOM
      1 C1         -0.0187    1.5258    0.0104 C.3       1 <0>        -0.1542
      2 C2          0.0021   -0.0041    0.0020 C.3       1 <0>        -0.1264
      3 C3          0.7182   -0.4975   -1.2568 C.3       1 <0>        -0.1209
      4 C4          0.7390   -2.0273   -1.2652 C.3       1 <0>        -0.1217
      5 C5          1.4551   -2.5207   -2.5240 C.3       1 <0>        -0.1200
      6 C6          1.4758   -4.0506   -2.5324 C.3       1 <0>        -0.1203
      7 C7          2.1920   -4.5440   -3.7912 C.3       1 <0>        -0.1200
      8 C8          2.2127   -6.0738   -3.7996 C.3       1 <0>        -0.1038
      9 C9          2.9289   -6.5673   -5.0584 C.3       1 <0>        -0.1407
     10 C10         2.9493   -8.0741   -5.0667 C.2       1 <0>         0.5057
     11 O1          2.4411   -8.6925   -4.1555 O.2       1 <0>        -0.5280
     12 N1          3.5323   -8.7345   -6.0867 N.am      1 <0>        -0.7169
     13 C11         3.5522  -10.1994   -6.0948 C.3       1 <0>         0.1234
     14 H1          2.6300  -10.5777   -5.6537 H         1 <0>         0.0960
     15 C12         3.6711  -10.6999   -7.5357 C.3       1 <0>         0.0473
     16 N2          2.5886  -10.1243   -8.3449 N.3       1 <0>        -0.6608
     17 C13         2.6710  -10.5839   -9.7377 C.3       1 <0>         0.1246
     18 C14         3.6334   -9.7142  -10.4924 C.2       1 <0>        -0.0890
     19 C15         3.4234   -9.2693  -11.6897 C.2       1 <0>        -0.1705
     20 C16         2.1840   -9.5532  -12.4868 C.3       1 <0>         0.1245
     21 C17         1.4330  -10.7440  -11.8873 C.3       1 <0>         0.0861
     22 C18         1.2830  -10.5131  -10.3782 C.3       1 <0>         0.1174
     23 O2          0.7108   -9.2249  -10.1434 O.3       1 <0>        -0.5396
     24 O3          0.1406  -10.8486  -12.4881 O.3       1 <0>        -0.5618
     25 O4          2.5469   -9.8526  -13.8361 O.3       1 <0>        -0.5654
     26 C19         4.4902   -8.4136  -12.3227 C.3       1 <0>         0.1113
     27 O5          5.5810   -8.2611  -11.4123 O.3       1 <0>        -0.5671
     28 C20         4.7485  -10.6977   -5.2814 C.3       1 <0>         0.1400
     29 H2          5.6706  -10.3194   -5.7225 H         1 <0>         0.0637
     30 C21         4.7689  -12.2045   -5.2897 C.ar      1 <0>        -0.0846
     31 C22         3.9359  -12.9117   -4.4431 C.ar      1 <0>        -0.0884
     32 C23         3.9546  -14.2939   -4.4506 C.ar      1 <0>        -0.1226
     33 C24         4.8060  -14.9689   -5.3052 C.ar      1 <0>        -0.1156
     34 C25         5.6384  -14.2617   -6.1526 C.ar      1 <0>        -0.1224
     35 C26         5.6166  -12.8795   -6.1480 C.ar      1 <0>        -0.1101
     36 O6          4.6374  -10.2302   -3.9356 O.3       1 <0>        -0.5434
     37 H3          1.0039    1.9031    0.0027 H         1 <0>         0.0532
     38 H4         -0.5459    1.8868   -0.8726 H         1 <0>         0.0532
     39 H5         -0.5289    1.8773    0.9072 H         1 <0>         0.0533
     40 H6          0.5293   -0.3651    0.8851 H         1 <0>         0.0603
     41 H7         -1.0205   -0.3814    0.0098 H         1 <0>         0.0603
     42 H8          0.1910   -0.1364   -2.1398 H         1 <0>         0.0603
     43 H9          1.7408   -0.1202   -1.2645 H         1 <0>         0.0603
     44 H10         1.2661   -2.3884   -0.3821 H         1 <0>         0.0608
     45 H11        -0.2836   -2.4046   -1.2575 H         1 <0>         0.0608
     46 H12         0.9279   -2.1597   -3.4071 H         1 <0>         0.0603
     47 H13         2.4777   -2.1435   -2.5317 H         1 <0>         0.0603
     48 H14         2.0030   -4.4117   -1.6494 H         1 <0>         0.0619
     49 H15         0.4533   -4.4279   -2.5247 H         1 <0>         0.0618
     50 H16         1.6648   -4.1829   -4.6743 H         1 <0>         0.0615
     51 H17         3.2146   -4.1667   -3.7990 H         1 <0>         0.0613
     52 H18         2.7399   -6.4349   -2.9166 H         1 <0>         0.0694
     53 H19         1.1901   -6.4511   -3.7919 H         1 <0>         0.0691
     54 H20         2.4017   -6.2062   -5.9415 H         1 <0>         0.0943
     55 H21         3.9515   -6.1900   -5.0662 H         1 <0>         0.0912
     56 H22         3.9388   -8.2400   -6.8155 H         1 <0>         0.4067
     57 H23         4.6335  -10.3962   -7.9476 H         1 <0>         0.0814
     58 H24         3.5966  -11.7872   -7.5499 H         1 <0>         0.0524
     59 H25         1.6865  -10.3378   -7.9464 H         1 <0>         0.3503
     60 H26         3.0260  -11.6142   -9.7578 H         1 <0>         0.0709
     61 H27         4.5586   -9.4423  -10.0061 H         1 <0>         0.1282
     62 H28         1.5379   -8.6754  -12.4749 H         1 <0>         0.0789
     63 H29         1.9975  -11.6596  -12.0635 H         1 <0>         0.0737
     64 H30         0.6427  -11.2851   -9.9513 H         1 <0>         0.0709
     65 H31        -0.1712   -9.1112  -10.5232 H         1 <0>         0.3824
     66 H32         0.1616  -10.9794  -13.4460 H         1 <0>         0.3915
     67 H33         3.0183   -9.1373  -14.2846 H         1 <0>         0.3817
     68 H34         4.8437   -8.8906  -13.2368 H         1 <0>         0.0572
     69 H35         4.0761   -7.4338  -12.5609 H         1 <0>         0.0558
     70 H36         6.3061   -7.7204  -11.7543 H         1 <0>         0.3842
     71 H37         3.2707  -12.3843   -3.7754 H         1 <0>         0.1284
     72 H38         3.3043  -14.8464   -3.7887 H         1 <0>         0.1233
     73 H39         4.8212  -16.0488   -5.3107 H         1 <0>         0.1222
     74 H40         6.3038  -14.7891   -6.8200 H         1 <0>         0.1235
     75 H41         6.2642  -12.3271   -6.8126 H         1 <0>         0.1214
     76 H42         4.6184   -9.2668   -3.8542 H         1 <0>         0.3758
@<TRIPOS>BOND
     1    1    2 1
     2    1   37 1
     3    1   38 1
     4    1   39 1
     5    2    3 1
     6    2   40 1
     7    2   41 1
     8    3    4 1
     9    3   42 1
    10    3   43 1
    11    4    5 1
    12    4   44 1
    13    4   45 1
    14    5    6 1
    15    5   46 1
    16    5   47 1
    17    6    7 1
    18    6   48 1
    19    6   49 1
    20    7    8 1
    21    7   50 1
    22    7   51 1
    23    8    9 1
    24    8   52 1
    25    8   53 1
    26    9   10 1
    27    9   54 1
    28    9   55 1
    29   10   11 2
    30   10   12 am
    31   12   13 1
    32   12   56 1
    33   13   14 1
    34   13   15 1
    35   13   28 1
    36   15   16 1
    37   15   57 1
    38   15   58 1
    39   16   17 1
    40   16   59 1
    41   17   22 1
    42   17   18 1
    43   17   60 1
    44   18   19 2
    45   18   61 1
    46   19   20 1
    47   19   26 1
    48   20   21 1
    49   20   25 1
    50   20   62 1
    51   21   22 1
    52   21   24 1
    53   21   63 1
    54   22   23 1
    55   22   64 1
    56   23   65 1
    57   24   66 1
    58   25   67 1
    59   26   27 1
    60   26   68 1
    61   26   69 1
    62   27   70 1
    63   28   29 1
    64   28   30 1
    65   28   36 1
    66   30   35 ar
    67   30   31 ar
    68   31   32 ar
    69   31   71 1
    70   32   33 ar
    71   32   72 1
    72   33   34 ar
    73   33   73 1
    74   34   35 ar
    75   34   74 1
    76   35   75 1
    77   36   76 1
@<TRIPOS>MOLECULE
CHEMBL59041__6
   77    78     0     0     0
SMALL
USER_CHARGES

@<TRIPOS>ATOM
      1 C1         -0.0187    1.5258    0.0104 C.3       1 <0>        -0.1550
      2 C2          0.0021   -0.0041    0.0020 C.3       1 <0>        -0.1264
      3 C3         -1.4333   -0.5336    0.0129 C.3       1 <0>        -0.1210
      4 C4         -1.4126   -2.0635    0.0045 C.3       1 <0>        -0.1219
      5 C5         -2.8479   -2.5931    0.0153 C.3       1 <0>        -0.1200
      6 C6         -2.8272   -4.1229    0.0069 C.3       1 <0>        -0.1203
      7 C7         -4.2626   -4.6525    0.0178 C.3       1 <0>        -0.1198
      8 C8         -4.2418   -6.1823    0.0094 C.3       1 <0>        -0.1050
      9 C9         -5.6772   -6.7119    0.0202 C.3       1 <0>        -0.1402
     10 C10        -5.6568   -8.2187    0.0119 C.2       1 <0>         0.5135
     11 O1         -4.5984   -8.8108   -0.0014 O.2       1 <0>        -0.4861
     12 N1         -6.8147   -8.9084    0.0193 N.am      1 <0>        -0.7613
     13 C11        -6.7948  -10.3733    0.0112 C.3       1 <0>         0.0942
     14 H1         -5.9426  -10.7283    0.5907 H         1 <0>         0.1244
     15 C12        -8.0892  -10.9043    0.6304 C.3       1 <0>        -0.0193
     16 N2         -8.2633  -10.3282    1.9705 N.4       1 <0>        -0.4996
     17 C13        -9.5062  -10.8381    2.5650 C.3       1 <0>         0.0803
     18 C14       -10.6767  -10.3618    1.7556 C.2       1 <0>        -0.2039
     19 C15       -11.7786   -9.9151    2.2673 C.2       1 <0>        -0.0813
     20 C16       -12.0355   -9.8011    3.7414 C.3       1 <0>         0.0986
     21 C17       -11.0321  -10.6557    4.5189 C.3       1 <0>         0.0946
     22 C18        -9.6225  -10.3360    4.0058 C.3       1 <0>         0.0986
     23 O2         -8.6528  -10.9941    4.8235 O.3       1 <0>        -0.5570
     24 O3        -11.1173  -10.3484    5.9119 O.3       1 <0>        -0.5542
     25 O4        -13.3617  -10.2502    4.0271 O.3       1 <0>        -0.5488
     26 C19       -12.8711   -9.4820    1.3240 C.3       1 <0>         0.0929
     27 O5        -12.4365   -9.6660   -0.0248 O.3       1 <0>        -0.5720
     28 C20        -6.6759  -10.8738   -1.4297 C.3       1 <0>         0.1462
     29 H2         -6.6611  -11.9637   -1.4357 H         1 <0>         0.1248
     30 C21        -5.4009  -10.3508   -2.0396 C.ar      1 <0>        -0.1153
     31 C22        -5.3437   -9.0544   -2.5160 C.ar      1 <0>        -0.1049
     32 C23        -4.1742   -8.5746   -3.0755 C.ar      1 <0>        -0.1089
     33 C24        -3.0618   -9.3911   -3.1580 C.ar      1 <0>        -0.1032
     34 C25        -3.1187  -10.6872   -2.6807 C.ar      1 <0>        -0.1090
     35 C26        -4.2869  -11.1655   -2.1174 C.ar      1 <0>        -0.0977
     36 O6         -7.7932  -10.4084   -2.1893 O.3       1 <0>        -0.5437
     37 H3          1.0039    1.9031    0.0027 H         1 <0>         0.0549
     38 H4         -0.5459    1.8868   -0.8726 H         1 <0>         0.0537
     39 H5         -0.5289    1.8773    0.9072 H         1 <0>         0.0534
     40 H6          0.5123   -0.3556   -0.8948 H         1 <0>         0.0607
     41 H7          0.5293   -0.3651    0.8851 H         1 <0>         0.0605
     42 H8         -1.9435   -0.1821    0.9097 H         1 <0>         0.0604
     43 H9         -1.9605   -0.1726   -0.8702 H         1 <0>         0.0608
     44 H10        -0.9024   -2.4150   -0.8923 H         1 <0>         0.0613
     45 H11        -0.8854   -2.4246    0.8875 H         1 <0>         0.0610
     46 H12        -3.3581   -2.2415    0.9121 H         1 <0>         0.0603
     47 H13        -3.3751   -2.2320   -0.8677 H         1 <0>         0.0610
     48 H14        -2.3170   -4.4744   -0.8899 H         1 <0>         0.0628
     49 H15        -2.3000   -4.4840    0.8900 H         1 <0>         0.0620
     50 H16        -4.7728   -4.3010    0.9146 H         1 <0>         0.0613
     51 H17        -4.7898   -4.2914   -0.8653 H         1 <0>         0.0628
     52 H18        -3.7316   -6.5338   -0.8874 H         1 <0>         0.0733
     53 H19        -3.7146   -6.5434    0.8924 H         1 <0>         0.0697
     54 H20        -6.1874   -6.3604    0.9170 H         1 <0>         0.0933
     55 H21        -6.2044   -6.3508   -0.8628 H         1 <0>         0.0966
     56 H22        -7.6612   -8.4349    0.0299 H         1 <0>         0.3999
     57 H23        -8.9344  -10.6239    0.0018 H         1 <0>         0.1507
     58 H24        -8.0371  -11.9904    0.7058 H         1 <0>         0.1524
     59 H25        -7.4810  -10.5878    2.5524 H         1 <0>         0.4379
     60 H26        -9.4873  -11.9279    2.5625 H         1 <0>         0.1600
     61 H27       -10.5944  -10.3934    0.6792 H         1 <0>         0.1612
     62 H28       -11.9355   -8.7594    4.0461 H         1 <0>         0.0937
     63 H29       -11.2493  -11.7118    4.3596 H         1 <0>         0.0884
     64 H30        -9.4585   -9.2587    4.0328 H         1 <0>         0.0892
     65 H31        -8.6711  -10.7223    5.7514 H         1 <0>         0.4166
     66 H32       -11.9886  -10.5119    6.2981 H         1 <0>         0.4074
     67 H33       -14.0532   -9.7466    3.5761 H         1 <0>         0.3929
     68 H34       -13.7641  -10.0809    1.5029 H         1 <0>         0.0791
     69 H35       -13.0999   -8.4295    1.4916 H         1 <0>         0.0762
     70 H36       -13.0912   -9.4072   -0.6878 H         1 <0>         0.4005
     71 H37        -6.2128   -8.4165   -2.4516 H         1 <0>         0.1077
     72 H38        -4.1297   -7.5620   -3.4484 H         1 <0>         0.1202
     73 H39        -2.1483   -9.0165   -3.5957 H         1 <0>         0.1232
     74 H40        -2.2497  -11.3251   -2.7454 H         1 <0>         0.1241
     75 H41        -4.3303  -12.1769   -1.7411 H         1 <0>         0.1194
     76 H42        -7.8692   -9.4451   -2.2272 H         1 <0>         0.3753
     77 H43        -8.3116   -9.3228    1.9007 H         1 <0>         0.4220
@<TRIPOS>BOND
     1    1    2 1
     2    1   37 1
     3    1   38 1
     4    1   39 1
     5    2    3 1
     6    2   40 1
     7    2   41 1
     8    3    4 1
     9    3   42 1
    10    3   43 1
    11    4    5 1
    12    4   44 1
    13    4   45 1
    14    5    6 1
    15    5   46 1
    16    5   47 1
    17    6    7 1
    18    6   48 1
    19    6   49 1
    20    7    8 1
    21    7   50 1
    22    7   51 1
    23    8    9 1
    24    8   52 1
    25    8   53 1
    26    9   10 1
    27    9   54 1
    28    9   55 1
    29   10   11 2
    30   10   12 am
    31   12   13 1
    32   12   56 1
    33   13   14 1
    34   13   15 1
    35   13   28 1
    36   15   16 1
    37   15   57 1
    38   15   58 1
    39   16   17 1
    40   16   59 1
    41   16   77 1
    42   17   22 1
    43   17   18 1
    44   17   60 1
    45   18   19 2
    46   18   61 1
    47   19   20 1
    48   19   26 1
    49   20   21 1
    50   20   25 1
    51   20   62 1
    52   21   22 1
    53   21   24 1
    54   21   63 1
    55   22   23 1
    56   22   64 1
    57   23   65 1
    58   24   66 1
    59   25   67 1
    60   26   27 1
    61   26   68 1
    62   26   69 1
    63   27   70 1
    64   28   29 1
    65   28   30 1
    66   28   36 1
    67   30   35 ar
    68   30   31 ar
    69   31   32 ar
    70   31   71 1
    71   32   33 ar
    72   32   72 1
    73   33   34 ar
    74   33   73 1
    75   34   35 ar
    76   34   74 1
    77   35   75 1
    78   36   76 1
@<TRIPOS>MOLECULE
CHEMBL59041__7
   76    77     0     0     0
SMALL
USER_CHARGES

@<TRIPOS>ATOM
      1 C1         -0.0187    1.5258    0.0104 C.3       1 <0>        -0.1542
      2 C2          0.0021   -0.0041    0.0020 C.3       1 <0>        -0.1264
      3 C3          0.7182   -0.4975   -1.2568 C.3       1 <0>        -0.1209
      4 C4          0.7390   -2.0273   -1.2652 C.3       1 <0>        -0.1218
      5 C5          1.4551   -2.5207   -2.5240 C.3       1 <0>        -0.1199
      6 C6          1.4758   -4.0506   -2.5324 C.3       1 <0>        -0.1205
      7 C7          2.1920   -4.5440   -3.7912 C.3       1 <0>        -0.1198
      8 C8          2.2127   -6.0738   -3.7996 C.3       1 <0>        -0.1043
      9 C9          2.9289   -6.5673   -5.0584 C.3       1 <0>        -0.1405
     10 C10         2.9493   -8.0741   -5.0667 C.2       1 <0>         0.5044
     11 O1          2.4411   -8.6925   -4.1555 O.2       1 <0>        -0.5261
     12 N1          3.5323   -8.7345   -6.0867 N.am      1 <0>        -0.7184
     13 C11         3.5522  -10.1994   -6.0948 C.3       1 <0>         0.1224
     14 H1          2.6300  -10.5777   -5.6537 H         1 <0>         0.0971
     15 C12         3.6711  -10.6999   -7.5357 C.3       1 <0>         0.0501
     16 N2          2.5886  -10.1243   -8.3449 N.3       1 <0>        -0.6713
     17 C13         2.6710  -10.5839   -9.7377 C.3       1 <0>         0.1239
     18 C14         3.6334   -9.7142  -10.4924 C.2       1 <0>        -0.0903
     19 C15         3.4234   -9.2693  -11.6897 C.2       1 <0>        -0.1785
     20 C16         2.1836   -9.5524  -12.4864 C.3       1 <0>         0.1186
     21 C17         1.4324  -10.7433  -11.8872 C.3       1 <0>         0.0891
     22 C18         1.2830  -10.5131  -10.3782 C.3       1 <0>         0.1175
     23 O2          0.4436  -11.5252   -9.8186 O.3       1 <0>        -0.5579
     24 O3          0.1398  -10.8472  -12.4875 O.3       1 <0>        -0.5613
     25 O4          2.5458   -9.8513  -13.8361 O.3       1 <0>        -0.5605
     26 C19         4.4902   -8.4136  -12.3227 C.3       1 <0>         0.1111
     27 O5          5.5810   -8.2611  -11.4123 O.3       1 <0>        -0.5673
     28 C20         4.7485  -10.6977   -5.2814 C.3       1 <0>         0.1407
     29 H2          5.6706  -10.3194   -5.7225 H         1 <0>         0.0636
     30 C21         4.7689  -12.2045   -5.2897 C.ar      1 <0>        -0.0852
     31 C22         3.9359  -12.9117   -4.4431 C.ar      1 <0>        -0.0879
     32 C23         3.9546  -14.2939   -4.4506 C.ar      1 <0>        -0.1222
     33 C24         4.8060  -14.9689   -5.3052 C.ar      1 <0>        -0.1151
     34 C25         5.6384  -14.2617   -6.1526 C.ar      1 <0>        -0.1222
     35 C26         5.6166  -12.8795   -6.1480 C.ar      1 <0>        -0.1100
     36 O6          4.6374  -10.2302   -3.9356 O.3       1 <0>        -0.5431
     37 H3          1.0039    1.9031    0.0027 H         1 <0>         0.0532
     38 H4         -0.5459    1.8868   -0.8726 H         1 <0>         0.0531
     39 H5         -0.5289    1.8773    0.9072 H         1 <0>         0.0533
     40 H6          0.5293   -0.3651    0.8851 H         1 <0>         0.0604
     41 H7         -1.0205   -0.3814    0.0098 H         1 <0>         0.0603
     42 H8          0.1910   -0.1364   -2.1398 H         1 <0>         0.0603
     43 H9          1.7408   -0.1202   -1.2645 H         1 <0>         0.0603
     44 H10         1.2661   -2.3884   -0.3821 H         1 <0>         0.0610
     45 H11        -0.2836   -2.4046   -1.2575 H         1 <0>         0.0608
     46 H12         0.9279   -2.1597   -3.4071 H         1 <0>         0.0602
     47 H13         2.4777   -2.1435   -2.5317 H         1 <0>         0.0603
     48 H14         2.0030   -4.4117   -1.6494 H         1 <0>         0.0622
     49 H15         0.4533   -4.4279   -2.5247 H         1 <0>         0.0619
     50 H16         1.6648   -4.1829   -4.6743 H         1 <0>         0.0612
     51 H17         3.2146   -4.1667   -3.7990 H         1 <0>         0.0614
     52 H18         2.7399   -6.4349   -2.9166 H         1 <0>         0.0699
     53 H19         1.1901   -6.4511   -3.7919 H         1 <0>         0.0693
     54 H20         2.4017   -6.2062   -5.9415 H         1 <0>         0.0934
     55 H21         3.9515   -6.1900   -5.0662 H         1 <0>         0.0917
     56 H22         3.9388   -8.2400   -6.8155 H         1 <0>         0.4059
     57 H23         4.6335  -10.3962   -7.9476 H         1 <0>         0.0808
     58 H24         3.5966  -11.7872   -7.5499 H         1 <0>         0.0558
     59 H25         1.6865  -10.3378   -7.9464 H         1 <0>         0.3548
     60 H26         3.0260  -11.6142   -9.7578 H         1 <0>         0.0703
     61 H27         4.5586   -9.4423  -10.0061 H         1 <0>         0.1348
     62 H28         1.5378   -8.6744  -12.4738 H         1 <0>         0.0763
     63 H29         1.9966  -11.6590  -12.0642 H         1 <0>         0.0747
     64 H30         0.8465   -9.5305  -10.1991 H         1 <0>         0.0758
     65 H31        -0.4530  -11.5371  -10.1806 H         1 <0>         0.3930
     66 H32         0.1603  -10.9775  -13.4455 H         1 <0>         0.3926
     67 H33         3.0173   -9.1358  -14.2844 H         1 <0>         0.3826
     68 H34         4.8437   -8.8906  -13.2368 H         1 <0>         0.0594
     69 H35         4.0761   -7.4338  -12.5609 H         1 <0>         0.0573
     70 H36         6.3061   -7.7204  -11.7543 H         1 <0>         0.3856
     71 H37         3.2707  -12.3843   -3.7754 H         1 <0>         0.1283
     72 H38         3.3043  -14.8464   -3.7887 H         1 <0>         0.1233
     73 H39         4.8212  -16.0488   -5.3107 H         1 <0>         0.1223
     74 H40         6.3038  -14.7891   -6.8200 H         1 <0>         0.1234
     75 H41         6.2642  -12.3271   -6.8126 H         1 <0>         0.1210
     76 H42         4.6184   -9.2668   -3.8542 H         1 <0>         0.3753
@<TRIPOS>BOND
     1    1    2 1
     2    1   37 1
     3    1   38 1
     4    1   39 1
     5    2    3 1
     6    2   40 1
     7    2   41 1
     8    3    4 1
     9    3   42 1
    10    3   43 1
    11    4    5 1
    12    4   44 1
    13    4   45 1
    14    5    6 1
    15    5   46 1
    16    5   47 1
    17    6    7 1
    18    6   48 1
    19    6   49 1
    20    7    8 1
    21    7   50 1
    22    7   51 1
    23    8    9 1
    24    8   52 1
    25    8   53 1
    26    9   10 1
    27    9   54 1
    28    9   55 1
    29   10   11 2
    30   10   12 am
    31   12   13 1
    32   12   56 1
    33   13   14 1
    34   13   15 1
    35   13   28 1
    36   15   16 1
    37   15   57 1
    38   15   58 1
    39   16   17 1
    40   16   59 1
    41   17   22 1
    42   17   18 1
    43   17   60 1
    44   18   19 2
    45   18   61 1
    46   19   20 1
    47   19   26 1
    48   20   21 1
    49   20   25 1
    50   20   62 1
    51   21   22 1
    52   21   24 1
    53   21   63 1
    54   22   23 1
    55   22   64 1
    56   23   65 1
    57   24   66 1
    58   25   67 1
    59   26   27 1
    60   26   68 1
    61   26   69 1
    62   27   70 1
    63   28   29 1
    64   28   30 1
    65   28   36 1
    66   30   35 ar
    67   30   31 ar
    68   31   32 ar
    69   31   71 1
    70   32   33 ar
    71   32   72 1
    72   33   34 ar
    73   33   73 1
    74   34   35 ar
    75   34   74 1
    76   35   75 1
    77   36   76 1
@<TRIPOS>MOLECULE
CHEMBL59041__8
   77    78     0     0     0
SMALL
USER_CHARGES

@<TRIPOS>ATOM
      1 C1         -0.0187    1.5258    0.0104 C.3       1 <0>        -0.1550
      2 C2          0.0021   -0.0041    0.0020 C.3       1 <0>        -0.1264
      3 C3         -1.4333   -0.5336    0.0129 C.3       1 <0>        -0.1210
      4 C4         -1.4126   -2.0635    0.0045 C.3       1 <0>        -0.1218
      5 C5         -2.8479   -2.5931    0.0153 C.3       1 <0>        -0.1200
      6 C6         -2.8272   -4.1229    0.0069 C.3       1 <0>        -0.1201
      7 C7         -4.2626   -4.6525    0.0178 C.3       1 <0>        -0.1200
      8 C8         -4.2418   -6.1823    0.0094 C.3       1 <0>        -0.1043
      9 C9         -5.6772   -6.7119    0.0202 C.3       1 <0>        -0.1405
     10 C10        -5.6568   -8.2187    0.0119 C.2       1 <0>         0.5149
     11 O1         -4.5984   -8.8108   -0.0014 O.2       1 <0>        -0.4890
     12 N1         -6.8147   -8.9084    0.0193 N.am      1 <0>        -0.7596
     13 C11        -6.7948  -10.3733    0.0112 C.3       1 <0>         0.0949
     14 H1         -5.9426  -10.7283    0.5907 H         1 <0>         0.1228
     15 C12        -8.0892  -10.9043    0.6304 C.3       1 <0>        -0.0205
     16 N2         -8.2633  -10.3282    1.9705 N.4       1 <0>        -0.4988
     17 C13        -9.5062  -10.8381    2.5650 C.3       1 <0>         0.0852
     18 C14       -10.6767  -10.3618    1.7556 C.2       1 <0>        -0.1782
     19 C15       -11.7786   -9.9151    2.2673 C.2       1 <0>        -0.0856
     20 C16       -12.0359   -9.8020    3.7414 C.3       1 <0>         0.1094
     21 C17       -11.0323  -10.6565    4.5187 C.3       1 <0>         0.0863
     22 C18        -9.6225  -10.3360    4.0058 C.3       1 <0>         0.0974
     23 O2         -9.4076   -8.9237    4.0412 O.3       1 <0>        -0.5483
     24 O3        -11.3164  -12.0412    4.3090 O.3       1 <0>        -0.5518
     25 O4        -11.9055   -8.4364    4.1417 O.3       1 <0>        -0.5392
     26 C19       -12.8711   -9.4820    1.3240 C.3       1 <0>         0.0972
     27 O5        -12.4365   -9.6660   -0.0248 O.3       1 <0>        -0.5730
     28 C20        -6.6759  -10.8738   -1.4297 C.3       1 <0>         0.1458
     29 H2         -6.6611  -11.9637   -1.4357 H         1 <0>         0.1242
     30 C21        -5.4009  -10.3508   -2.0396 C.ar      1 <0>        -0.1145
     31 C22        -5.3437   -9.0544   -2.5160 C.ar      1 <0>        -0.1045
     32 C23        -4.1742   -8.5746   -3.0755 C.ar      1 <0>        -0.1087
     33 C24        -3.0618   -9.3911   -3.1580 C.ar      1 <0>        -0.1036
     34 C25        -3.1187  -10.6872   -2.6807 C.ar      1 <0>        -0.1093
     35 C26        -4.2869  -11.1655   -2.1174 C.ar      1 <0>        -0.0981
     36 O6         -7.7932  -10.4084   -2.1893 O.3       1 <0>        -0.5440
     37 H3          1.0039    1.9031    0.0027 H         1 <0>         0.0548
     38 H4         -0.5459    1.8868   -0.8726 H         1 <0>         0.0537
     39 H5         -0.5289    1.8773    0.9072 H         1 <0>         0.0534
     40 H6          0.5123   -0.3556   -0.8948 H         1 <0>         0.0607
     41 H7          0.5293   -0.3651    0.8851 H         1 <0>         0.0604
     42 H8         -1.9435   -0.1821    0.9097 H         1 <0>         0.0605
     43 H9         -1.9605   -0.1726   -0.8702 H         1 <0>         0.0608
     44 H10        -0.9024   -2.4150   -0.8923 H         1 <0>         0.0612
     45 H11        -0.8854   -2.4246    0.8875 H         1 <0>         0.0609
     46 H12        -3.3581   -2.2415    0.9121 H         1 <0>         0.0605
     47 H13        -3.3751   -2.2320   -0.8677 H         1 <0>         0.0610
     48 H14        -2.3170   -4.4744   -0.8899 H         1 <0>         0.0625
     49 H15        -2.3000   -4.4840    0.8900 H         1 <0>         0.0619
     50 H16        -4.7728   -4.3010    0.9146 H         1 <0>         0.0616
     51 H17        -4.7898   -4.2914   -0.8653 H         1 <0>         0.0627
     52 H18        -3.7316   -6.5338   -0.8874 H         1 <0>         0.0728
     53 H19        -3.7146   -6.5434    0.8924 H         1 <0>         0.0694
     54 H20        -6.1874   -6.3604    0.9170 H         1 <0>         0.0943
     55 H21        -6.2044   -6.3508   -0.8628 H         1 <0>         0.0960
     56 H22        -7.6612   -8.4349    0.0299 H         1 <0>         0.4009
     57 H23        -8.9344  -10.6239    0.0018 H         1 <0>         0.1490
     58 H24        -8.0371  -11.9904    0.7058 H         1 <0>         0.1500
     59 H25        -7.4810  -10.5878    2.5524 H         1 <0>         0.4284
     60 H26        -9.4873  -11.9279    2.5625 H         1 <0>         0.1625
     61 H27       -10.5944  -10.3934    0.6792 H         1 <0>         0.1495
     62 H28       -13.0474  -10.1451    3.9589 H         1 <0>         0.0790
     63 H29       -11.0976  -10.4227    5.5813 H         1 <0>         0.0943
     64 H30        -8.8828  -10.8380    4.6295 H         1 <0>         0.0950
     65 H31        -9.4671   -8.5389    4.9263 H         1 <0>         0.4105
     66 H32       -12.1999  -12.3093    4.5964 H         1 <0>         0.4002
     67 H33       -12.5192   -7.8359    3.6970 H         1 <0>         0.3896
     68 H34       -13.7641  -10.0809    1.5029 H         1 <0>         0.0717
     69 H35       -13.0999   -8.4295    1.4916 H         1 <0>         0.0700
     70 H36       -13.0912   -9.4072   -0.6878 H         1 <0>         0.3977
     71 H37        -6.2128   -8.4165   -2.4516 H         1 <0>         0.1078
     72 H38        -4.1297   -7.5620   -3.4484 H         1 <0>         0.1202
     73 H39        -2.1483   -9.0165   -3.5957 H         1 <0>         0.1230
     74 H40        -2.2497  -11.3251   -2.7454 H         1 <0>         0.1238
     75 H41        -4.3303  -12.1769   -1.7411 H         1 <0>         0.1191
     76 H42        -7.8692   -9.4451   -2.2272 H         1 <0>         0.3755
     77 H43        -8.3116   -9.3228    1.9007 H         1 <0>         0.4311
@<TRIPOS>BOND
     1    1    2 1
     2    1   37 1
     3    1   38 1
     4    1   39 1
     5    2    3 1
     6    2   40 1
     7    2   41 1
     8    3    4 1
     9    3   42 1
    10    3   43 1
    11    4    5 1
    12    4   44 1
    13    4   45 1
    14    5    6 1
    15    5   46 1
    16    5   47 1
    17    6    7 1
    18    6   48 1
    19    6   49 1
    20    7    8 1
    21    7   50 1
    22    7   51 1
    23    8    9 1
    24    8   52 1
    25    8   53 1
    26    9   10 1
    27    9   54 1
    28    9   55 1
    29   10   11 2
    30   10   12 am
    31   12   13 1
    32   12   56 1
    33   13   14 1
    34   13   15 1
    35   13   28 1
    36   15   16 1
    37   15   57 1
    38   15   58 1
    39   16   17 1
    40   16   59 1
    41   16   77 1
    42   17   22 1
    43   17   18 1
    44   17   60 1
    45   18   19 2
    46   18   61 1
    47   19   20 1
    48   19   26 1
    49   20   21 1
    50   20   25 1
    51   20   62 1
    52   21   22 1
    53   21   24 1
    54   21   63 1
    55   22   23 1
    56   22   64 1
    57   23   65 1
    58   24   66 1
    59   25   67 1
    60   26   27 1
    61   26   68 1
    62   26   69 1
    63   27   70 1
    64   28   29 1
    65   28   30 1
    66   28   36 1
    67   30   35 ar
    68   30   31 ar
    69   31   32 ar
    70   31   71 1
    71   32   33 ar
    72   32   72 1
    73   33   34 ar
    74   33   73 1
    75   34   35 ar
    76   34   74 1
    77   35   75 1
    78   36   76 1
@<TRIPOS>MOLECULE
CHEMBL59041__9
   76    77     0     0     0
SMALL
USER_CHARGES

@<TRIPOS>ATOM
      1 C1         -0.0187    1.5258    0.0104 C.3       1 <0>        -0.1541
      2 C2          0.0021   -0.0041    0.0020 C.3       1 <0>        -0.1264
      3 C3          0.7182   -0.4975   -1.2568 C.3       1 <0>        -0.1209
      4 C4          0.7390   -2.0273   -1.2652 C.3       1 <0>        -0.1217
      5 C5          1.4551   -2.5207   -2.5240 C.3       1 <0>        -0.1200
      6 C6          1.4758   -4.0506   -2.5324 C.3       1 <0>        -0.1203
      7 C7          2.1920   -4.5440   -3.7912 C.3       1 <0>        -0.1200
      8 C8          2.2127   -6.0738   -3.7996 C.3       1 <0>        -0.1036
      9 C9          2.9289   -6.5673   -5.0584 C.3       1 <0>        -0.1406
     10 C10         2.9493   -8.0741   -5.0667 C.2       1 <0>         0.5057
     11 O1          2.4411   -8.6925   -4.1555 O.2       1 <0>        -0.5288
     12 N1          3.5323   -8.7345   -6.0867 N.am      1 <0>        -0.7162
     13 C11         3.5522  -10.1994   -6.0948 C.3       1 <0>         0.1237
     14 H1          2.6300  -10.5777   -5.6537 H         1 <0>         0.0953
     15 C12         3.6711  -10.6999   -7.5357 C.3       1 <0>         0.0483
     16 N2          2.5886  -10.1243   -8.3449 N.3       1 <0>        -0.6642
     17 C13         2.6710  -10.5839   -9.7377 C.3       1 <0>         0.1294
     18 C14         3.6334   -9.7142  -10.4924 C.2       1 <0>        -0.0635
     19 C15         3.4234   -9.2693  -11.6897 C.2       1 <0>        -0.1834
     20 C16         2.1840   -9.5532  -12.4868 C.3       1 <0>         0.1306
     21 C17         1.4330  -10.7440  -11.8873 C.3       1 <0>         0.0807
     22 C18         1.2830  -10.5131  -10.3782 C.3       1 <0>         0.1158
     23 O2          0.7108   -9.2249  -10.1434 O.3       1 <0>        -0.5195
     24 O3          2.1731  -11.9444  -12.1183 O.3       1 <0>        -0.5484
     25 O4          1.3369   -8.4024  -12.4712 O.3       1 <0>        -0.5442
     26 C19         4.4902   -8.4136  -12.3227 C.3       1 <0>         0.1149
     27 O5          5.5810   -8.2611  -11.4123 O.3       1 <0>        -0.5679
     28 C20         4.7485  -10.6977   -5.2814 C.3       1 <0>         0.1398
     29 H2          5.6706  -10.3194   -5.7225 H         1 <0>         0.0633
     30 C21         4.7689  -12.2045   -5.2897 C.ar      1 <0>        -0.0840
     31 C22         3.9359  -12.9117   -4.4431 C.ar      1 <0>        -0.0886
     32 C23         3.9546  -14.2939   -4.4506 C.ar      1 <0>        -0.1229
     33 C24         4.8060  -14.9689   -5.3052 C.ar      1 <0>        -0.1158
     34 C25         5.6384  -14.2617   -6.1526 C.ar      1 <0>        -0.1221
     35 C26         5.6166  -12.8795   -6.1480 C.ar      1 <0>        -0.1095
     36 O6          4.6374  -10.2302   -3.9356 O.3       1 <0>        -0.5437
     37 H3          1.0039    1.9031    0.0027 H         1 <0>         0.0532
     38 H4         -0.5459    1.8868   -0.8726 H         1 <0>         0.0532
     39 H5         -0.5289    1.8773    0.9072 H         1 <0>         0.0532
     40 H6          0.5293   -0.3651    0.8851 H         1 <0>         0.0603
     41 H7         -1.0205   -0.3814    0.0098 H         1 <0>         0.0603
     42 H8          0.1910   -0.1364   -2.1398 H         1 <0>         0.0603
     43 H9          1.7408   -0.1202   -1.2645 H         1 <0>         0.0603
     44 H10         1.2661   -2.3884   -0.3821 H         1 <0>         0.0608
     45 H11        -0.2836   -2.4046   -1.2575 H         1 <0>         0.0608
     46 H12         0.9279   -2.1597   -3.4071 H         1 <0>         0.0603
     47 H13         2.4777   -2.1435   -2.5317 H         1 <0>         0.0602
     48 H14         2.0030   -4.4117   -1.6494 H         1 <0>         0.0619
     49 H15         0.4533   -4.4279   -2.5247 H         1 <0>         0.0618
     50 H16         1.6648   -4.1829   -4.6743 H         1 <0>         0.0615
     51 H17         3.2146   -4.1667   -3.7990 H         1 <0>         0.0612
     52 H18         2.7399   -6.4349   -2.9166 H         1 <0>         0.0692
     53 H19         1.1901   -6.4511   -3.7919 H         1 <0>         0.0690
     54 H20         2.4017   -6.2062   -5.9415 H         1 <0>         0.0943
     55 H21         3.9515   -6.1900   -5.0662 H         1 <0>         0.0909
     56 H22         3.9388   -8.2400   -6.8155 H         1 <0>         0.4066
     57 H23         4.6335  -10.3962   -7.9476 H         1 <0>         0.0794
     58 H24         3.5966  -11.7872   -7.5499 H         1 <0>         0.0511
     59 H25         1.6865  -10.3378   -7.9464 H         1 <0>         0.3479
     60 H26         3.0260  -11.6142   -9.7578 H         1 <0>         0.0745
     61 H27         4.5586   -9.4423  -10.0061 H         1 <0>         0.1222
     62 H28         2.4608   -9.7816  -13.5160 H         1 <0>         0.0567
     63 H29         0.4472  -10.8238  -12.3455 H         1 <0>         0.0722
     64 H30         0.6427  -11.2851   -9.9513 H         1 <0>         0.0616
     65 H31        -0.1712   -9.1112  -10.5232 H         1 <0>         0.3762
     66 H32         2.3191  -12.1426  -13.0535 H         1 <0>         0.3837
     67 H33         1.7436   -7.6095  -12.8468 H         1 <0>         0.3788
     68 H34         4.8437   -8.8906  -13.2368 H         1 <0>         0.0512
     69 H35         4.0761   -7.4338  -12.5609 H         1 <0>         0.0516
     70 H36         6.3061   -7.7204  -11.7543 H         1 <0>         0.3826
     71 H37         3.2707  -12.3843   -3.7754 H         1 <0>         0.1282
     72 H38         3.3043  -14.8464   -3.7887 H         1 <0>         0.1230
     73 H39         4.8212  -16.0488   -5.3107 H         1 <0>         0.1221
     74 H40         6.3038  -14.7891   -6.8200 H         1 <0>         0.1234
     75 H41         6.2642  -12.3271   -6.8126 H         1 <0>         0.1212
     76 H42         4.6184   -9.2668   -3.8542 H         1 <0>         0.3756
@<TRIPOS>BOND
     1    1    2 1
     2    1   37 1
     3    1   38 1
     4    1   39 1
     5    2    3 1
     6    2   40 1
     7    2   41 1
     8    3    4 1
     9    3   42 1
    10    3   43 1
    11    4    5 1
    12    4   44 1
    13    4   45 1
    14    5    6 1
    15    5   46 1
    16    5   47 1
    17    6    7 1
    18    6   48 1
    19    6   49 1
    20    7    8 1
    21    7   50 1
    22    7   51 1
    23    8    9 1
    24    8   52 1
    25    8   53 1
    26    9   10 1
    27    9   54 1
    28    9   55 1
    29   10   11 2
    30   10   12 am
    31   12   13 1
    32   12   56 1
    33   13   14 1
    34   13   15 1
    35   13   28 1
    36   15   16 1
    37   15   57 1
    38   15   58 1
    39   16   17 1
    40   16   59 1
    41   17   22 1
    42   17   18 1
    43   17   60 1
    44   18   19 2
    45   18   61 1
    46   19   20 1
    47   19   26 1
    48   20   21 1
    49   20   25 1
    50   20   62 1
    51   21   22 1
    52   21   24 1
    53   21   63 1
    54   22   23 1
    55   22   64 1
    56   23   65 1
    57   24   66 1
    58   25   67 1
    59   26   27 1
    60   26   68 1
    61   26   69 1
    62   27   70 1
    63   28   29 1
    64   28   30 1
    65   28   36 1
    66   30   35 ar
    67   30   31 ar
    68   31   32 ar
    69   31   71 1
    70   32   33 ar
    71   32   72 1
    72   33   34 ar
    73   33   73 1
    74   34   35 ar
    75   34   74 1
    76   35   75 1
    77   36   76 1
@<TRIPOS>MOLECULE
CHEMBL59041__10
   77    78     0     0     0
SMALL
USER_CHARGES

@<TRIPOS>ATOM
      1 C1         -0.0187    1.5258    0.0104 C.3       1 <0>        -0.1550
      2 C2          0.0021   -0.0041    0.0020 C.3       1 <0>        -0.1264
      3 C3         -1.4333   -0.5336    0.0129 C.3       1 <0>        -0.1210
      4 C4         -1.4126   -2.0635    0.0045 C.3       1 <0>        -0.1219
      5 C5         -2.8479   -2.5931    0.0153 C.3       1 <0>        -0.1200
      6 C6         -2.8272   -4.1229    0.0069 C.3       1 <0>        -0.1203
      7 C7         -4.2626   -4.6525    0.0178 C.3       1 <0>        -0.1198
      8 C8         -4.2418   -6.1823    0.0094 C.3       1 <0>        -0.1049
      9 C9         -5.6772   -6.7119    0.0202 C.3       1 <0>        -0.1403
     10 C10        -5.6568   -8.2187    0.0119 C.2       1 <0>         0.5136
     11 O1         -4.5984   -8.8108   -0.0014 O.2       1 <0>        -0.4868
     12 N1         -6.8147   -8.9084    0.0193 N.am      1 <0>        -0.7608
     13 C11        -6.7948  -10.3733    0.0112 C.3       1 <0>         0.0943
     14 H1         -5.9426  -10.7283    0.5907 H         1 <0>         0.1238
     15 C12        -8.0892  -10.9043    0.6304 C.3       1 <0>        -0.0188
     16 N2         -8.2633  -10.3282    1.9705 N.4       1 <0>        -0.5017
     17 C13        -9.5062  -10.8381    2.5650 C.3       1 <0>         0.0819
     18 C14       -10.6767  -10.3618    1.7556 C.2       1 <0>        -0.1790
     19 C15       -11.7786   -9.9151    2.2673 C.2       1 <0>        -0.0924
     20 C16       -12.0355   -9.8011    3.7414 C.3       1 <0>         0.1005
     21 C17       -11.0321  -10.6557    4.5189 C.3       1 <0>         0.0904
     22 C18        -9.6225  -10.3360    4.0058 C.3       1 <0>         0.0998
     23 O2         -8.6528  -10.9941    4.8235 O.3       1 <0>        -0.5588
     24 O3        -11.3169  -12.0403    4.3100 O.3       1 <0>        -0.5452
     25 O4        -11.9044   -8.4354    4.1409 O.3       1 <0>        -0.5487
     26 C19       -12.8711   -9.4820    1.3240 C.3       1 <0>         0.0971
     27 O5        -12.4365   -9.6660   -0.0248 O.3       1 <0>        -0.5730
     28 C20        -6.6759  -10.8738   -1.4297 C.3       1 <0>         0.1460
     29 H2         -6.6611  -11.9637   -1.4357 H         1 <0>         0.1247
     30 C21        -5.4009  -10.3508   -2.0396 C.ar      1 <0>        -0.1147
     31 C22        -5.3437   -9.0544   -2.5160 C.ar      1 <0>        -0.1049
     32 C23        -4.1742   -8.5746   -3.0755 C.ar      1 <0>        -0.1090
     33 C24        -3.0618   -9.3911   -3.1580 C.ar      1 <0>        -0.1035
     34 C25        -3.1187  -10.6872   -2.6807 C.ar      1 <0>        -0.1090
     35 C26        -4.2869  -11.1655   -2.1174 C.ar      1 <0>        -0.0978
     36 O6         -7.7932  -10.4084   -2.1893 O.3       1 <0>        -0.5437
     37 H3          1.0039    1.9031    0.0027 H         1 <0>         0.0549
     38 H4         -0.5459    1.8868   -0.8726 H         1 <0>         0.0537
     39 H5         -0.5289    1.8773    0.9072 H         1 <0>         0.0534
     40 H6          0.5123   -0.3556   -0.8948 H         1 <0>         0.0607
     41 H7          0.5293   -0.3651    0.8851 H         1 <0>         0.0605
     42 H8         -1.9435   -0.1821    0.9097 H         1 <0>         0.0604
     43 H9         -1.9605   -0.1726   -0.8702 H         1 <0>         0.0608
     44 H10        -0.9024   -2.4150   -0.8923 H         1 <0>         0.0613
     45 H11        -0.8854   -2.4246    0.8875 H         1 <0>         0.0610
     46 H12        -3.3581   -2.2415    0.9121 H         1 <0>         0.0604
     47 H13        -3.3751   -2.2320   -0.8677 H         1 <0>         0.0610
     48 H14        -2.3170   -4.4744   -0.8899 H         1 <0>         0.0627
     49 H15        -2.3000   -4.4840    0.8900 H         1 <0>         0.0620
     50 H16        -4.7728   -4.3010    0.9146 H         1 <0>         0.0614
     51 H17        -4.7898   -4.2914   -0.8653 H         1 <0>         0.0627
     52 H18        -3.7316   -6.5338   -0.8874 H         1 <0>         0.0733
     53 H19        -3.7146   -6.5434    0.8924 H         1 <0>         0.0696
     54 H20        -6.1874   -6.3604    0.9170 H         1 <0>         0.0934
     55 H21        -6.2044   -6.3508   -0.8628 H         1 <0>         0.0964
     56 H22        -7.6612   -8.4349    0.0299 H         1 <0>         0.3999
     57 H23        -8.9344  -10.6239    0.0018 H         1 <0>         0.1494
     58 H24        -8.0371  -11.9904    0.7058 H         1 <0>         0.1514
     59 H25        -7.4810  -10.5878    2.5524 H         1 <0>         0.4364
     60 H26        -9.4873  -11.9279    2.5625 H         1 <0>         0.1636
     61 H27       -10.5944  -10.3934    0.6792 H         1 <0>         0.1567
     62 H28       -13.0471  -10.1437    3.9593 H         1 <0>         0.0875
     63 H29       -11.0971  -10.4213    5.5814 H         1 <0>         0.0960
     64 H30        -9.4585   -9.2587    4.0328 H         1 <0>         0.1011
     65 H31        -8.6711  -10.7223    5.7514 H         1 <0>         0.4079
     66 H32       -12.2005  -12.3079    4.5977 H         1 <0>         0.3961
     67 H33       -12.5179   -7.8348    3.6960 H         1 <0>         0.3943
     68 H34       -13.7641  -10.0809    1.5029 H         1 <0>         0.0745
     69 H35       -13.0999   -8.4295    1.4916 H         1 <0>         0.0717
     70 H36       -13.0912   -9.4072   -0.6878 H         1 <0>         0.3992
     71 H37        -6.2128   -8.4165   -2.4516 H         1 <0>         0.1077
     72 H38        -4.1297   -7.5620   -3.4484 H         1 <0>         0.1201
     73 H39        -2.1483   -9.0165   -3.5957 H         1 <0>         0.1230
     74 H40        -2.2497  -11.3251   -2.7454 H         1 <0>         0.1240
     75 H41        -4.3303  -12.1769   -1.7411 H         1 <0>         0.1194
     76 H42        -7.8692   -9.4451   -2.2272 H         1 <0>         0.3751
     77 H43        -8.3116   -9.3228    1.9007 H         1 <0>         0.4205
@<TRIPOS>BOND
     1    1    2 1
     2    1   37 1
     3    1   38 1
     4    1   39 1
     5    2    3 1
     6    2   40 1
     7    2   41 1
     8    3    4 1
     9    3   42 1
    10    3   43 1
    11    4    5 1
    12    4   44 1
    13    4   45 1
    14    5    6 1
    15    5   46 1
    16    5   47 1
    17    6    7 1
    18    6   48 1
    19    6   49 1
    20    7    8 1
    21    7   50 1
    22    7   51 1
    23    8    9 1
    24    8   52 1
    25    8   53 1
    26    9   10 1
    27    9   54 1
    28    9   55 1
    29   10   11 2
    30   10   12 am
    31   12   13 1
    32   12   56 1
    33   13   14 1
    34   13   15 1
    35   13   28 1
    36   15   16 1
    37   15   57 1
    38   15   58 1
    39   16   17 1
    40   16   59 1
    41   16   77 1
    42   17   22 1
    43   17   18 1
    44   17   60 1
    45   18   19 2
    46   18   61 1
    47   19   20 1
    48   19   26 1
    49   20   21 1
    50   20   25 1
    51   20   62 1
    52   21   22 1
    53   21   24 1
    54   21   63 1
    55   22   23 1
    56   22   64 1
    57   23   65 1
    58   24   66 1
    59   25   67 1
    60   26   27 1
    61   26   68 1
    62   26   69 1
    63   27   70 1
    64   28   29 1
    65   28   30 1
    66   28   36 1
    67   30   35 ar
    68   30   31 ar
    69   31   32 ar
    70   31   71 1
    71   32   33 ar
    72   32   72 1
    73   33   34 ar
    74   33   73 1
    75   34   35 ar
    76   34   74 1
    77   35   75 1
    78   36   76 1
@<TRIPOS>MOLECULE
CHEMBL59041__11
   76    77     0     0     0
SMALL
USER_CHARGES

@<TRIPOS>ATOM
      1 C1         -0.0187    1.5258    0.0104 C.3       1 <0>        -0.1541
      2 C2          0.0021   -0.0041    0.0020 C.3       1 <0>        -0.1264
      3 C3          0.7182   -0.4975   -1.2568 C.3       1 <0>        -0.1209
      4 C4          0.7390   -2.0273   -1.2652 C.3       1 <0>        -0.1217
      5 C5          1.4551   -2.5207   -2.5240 C.3       1 <0>        -0.1199
      6 C6          1.4758   -4.0506   -2.5324 C.3       1 <0>        -0.1205
      7 C7          2.1920   -4.5440   -3.7912 C.3       1 <0>        -0.1198
      8 C8          2.2127   -6.0738   -3.7996 C.3       1 <0>        -0.1041
      9 C9          2.9289   -6.5673   -5.0584 C.3       1 <0>        -0.1405
     10 C10         2.9493   -8.0741   -5.0667 C.2       1 <0>         0.5044
     11 O1          2.4411   -8.6925   -4.1555 O.2       1 <0>        -0.5268
     12 N1          3.5323   -8.7345   -6.0867 N.am      1 <0>        -0.7177
     13 C11         3.5522  -10.1994   -6.0948 C.3       1 <0>         0.1226
     14 H1          2.6300  -10.5777   -5.6537 H         1 <0>         0.0964
     15 C12         3.6711  -10.6999   -7.5357 C.3       1 <0>         0.0511
     16 N2          2.5886  -10.1243   -8.3449 N.3       1 <0>        -0.6748
     17 C13         2.6710  -10.5839   -9.7377 C.3       1 <0>         0.1275
     18 C14         3.6334   -9.7142  -10.4924 C.2       1 <0>        -0.0657
     19 C15         3.4234   -9.2693  -11.6897 C.2       1 <0>        -0.1903
     20 C16         2.1836   -9.5524  -12.4864 C.3       1 <0>         0.1217
     21 C17         1.4324  -10.7433  -11.8872 C.3       1 <0>         0.0852
     22 C18         1.2830  -10.5131  -10.3782 C.3       1 <0>         0.1152
     23 O2          0.4436  -11.5252   -9.8186 O.3       1 <0>        -0.5591
     24 O3          2.1721  -11.9438  -12.1192 O.3       1 <0>        -0.5418
     25 O4          1.3369   -8.4013  -12.4699 O.3       1 <0>        -0.5543
     26 C19         4.4902   -8.4136  -12.3227 C.3       1 <0>         0.1148
     27 O5          5.5810   -8.2611  -11.4123 O.3       1 <0>        -0.5680
     28 C20         4.7485  -10.6977   -5.2814 C.3       1 <0>         0.1406
     29 H2          5.6706  -10.3194   -5.7225 H         1 <0>         0.0633
     30 C21         4.7689  -12.2045   -5.2897 C.ar      1 <0>        -0.0847
     31 C22         3.9359  -12.9117   -4.4431 C.ar      1 <0>        -0.0881
     32 C23         3.9546  -14.2939   -4.4506 C.ar      1 <0>        -0.1225
     33 C24         4.8060  -14.9689   -5.3052 C.ar      1 <0>        -0.1152
     34 C25         5.6384  -14.2617   -6.1526 C.ar      1 <0>        -0.1219
     35 C26         5.6166  -12.8795   -6.1480 C.ar      1 <0>        -0.1094
     36 O6          4.6374  -10.2302   -3.9356 O.3       1 <0>        -0.5434
     37 H3          1.0039    1.9031    0.0027 H         1 <0>         0.0532
     38 H4         -0.5459    1.8868   -0.8726 H         1 <0>         0.0531
     39 H5         -0.5289    1.8773    0.9072 H         1 <0>         0.0533
     40 H6          0.5293   -0.3651    0.8851 H         1 <0>         0.0604
     41 H7         -1.0205   -0.3814    0.0098 H         1 <0>         0.0603
     42 H8          0.1910   -0.1364   -2.1398 H         1 <0>         0.0603
     43 H9          1.7408   -0.1202   -1.2645 H         1 <0>         0.0603
     44 H10         1.2661   -2.3884   -0.3821 H         1 <0>         0.0609
     45 H11        -0.2836   -2.4046   -1.2575 H         1 <0>         0.0608
     46 H12         0.9279   -2.1597   -3.4071 H         1 <0>         0.0602
     47 H13         2.4777   -2.1435   -2.5317 H         1 <0>         0.0603
     48 H14         2.0030   -4.4117   -1.6494 H         1 <0>         0.0621
     49 H15         0.4533   -4.4279   -2.5247 H         1 <0>         0.0618
     50 H16         1.6648   -4.1829   -4.6743 H         1 <0>         0.0612
     51 H17         3.2146   -4.1667   -3.7990 H         1 <0>         0.0613
     52 H18         2.7399   -6.4349   -2.9166 H         1 <0>         0.0697
     53 H19         1.1901   -6.4511   -3.7919 H         1 <0>         0.0692
     54 H20         2.4017   -6.2062   -5.9415 H         1 <0>         0.0935
     55 H21         3.9515   -6.1900   -5.0662 H         1 <0>         0.0914
     56 H22         3.9388   -8.2400   -6.8155 H         1 <0>         0.4058
     57 H23         4.6335  -10.3962   -7.9476 H         1 <0>         0.0789
     58 H24         3.5966  -11.7872   -7.5499 H         1 <0>         0.0546
     59 H25         1.6865  -10.3378   -7.9464 H         1 <0>         0.3526
     60 H26         3.0260  -11.6142   -9.7578 H         1 <0>         0.0758
     61 H27         4.5586   -9.4423  -10.0061 H         1 <0>         0.1295
     62 H28         2.4599   -9.7803  -13.5159 H         1 <0>         0.0654
     63 H29         0.4464  -10.8226  -12.3451 H         1 <0>         0.0742
     64 H30         0.8465   -9.5305  -10.1991 H         1 <0>         0.0891
     65 H31        -0.4530  -11.5371  -10.1806 H         1 <0>         0.3831
     66 H32         2.3177  -12.1415  -13.0545 H         1 <0>         0.3790
     67 H33         1.7437   -7.6084  -12.8452 H         1 <0>         0.3836
     68 H34         4.8437   -8.8906  -13.2368 H         1 <0>         0.0541
     69 H35         4.0761   -7.4338  -12.5609 H         1 <0>         0.0532
     70 H36         6.3061   -7.7204  -11.7543 H         1 <0>         0.3842
     71 H37         3.2707  -12.3843   -3.7754 H         1 <0>         0.1281
     72 H38         3.3043  -14.8464   -3.7887 H         1 <0>         0.1231
     73 H39         4.8212  -16.0488   -5.3107 H         1 <0>         0.1221
     74 H40         6.3038  -14.7891   -6.8200 H         1 <0>         0.1234
     75 H41         6.2642  -12.3271   -6.8126 H         1 <0>         0.1209
     76 H42         4.6184   -9.2668   -3.8542 H         1 <0>         0.3751
@<TRIPOS>BOND
     1    1    2 1
     2    1   37 1
     3    1   38 1
     4    1   39 1
     5    2    3 1
     6    2   40 1
     7    2   41 1
     8    3    4 1
     9    3   42 1
    10    3   43 1
    11    4    5 1
    12    4   44 1
    13    4   45 1
    14    5    6 1
    15    5   46 1
    16    5   47 1
    17    6    7 1
    18    6   48 1
    19    6   49 1
    20    7    8 1
    21    7   50 1
    22    7   51 1
    23    8    9 1
    24    8   52 1
    25    8   53 1
    26    9   10 1
    27    9   54 1
    28    9   55 1
    29   10   11 2
    30   10   12 am
    31   12   13 1
    32   12   56 1
    33   13   14 1
    34   13   15 1
    35   13   28 1
    36   15   16 1
    37   15   57 1
    38   15   58 1
    39   16   17 1
    40   16   59 1
    41   17   22 1
    42   17   18 1
    43   17   60 1
    44   18   19 2
    45   18   61 1
    46   19   20 1
    47   19   26 1
    48   20   21 1
    49   20   25 1
    50   20   62 1
    51   21   22 1
    52   21   24 1
    53   21   63 1
    54   22   23 1
    55   22   64 1
    56   23   65 1
    57   24   66 1
    58   25   67 1
    59   26   27 1
    60   26   68 1
    61   26   69 1
    62   27   70 1
    63   28   29 1
    64   28   30 1
    65   28   36 1
    66   30   35 ar
    67   30   31 ar
    68   31   32 ar
    69   31   71 1
    70   32   33 ar
    71   32   72 1
    72   33   34 ar
    73   33   73 1
    74   34   35 ar
    75   34   74 1
    76   35   75 1
    77   36   76 1
@<TRIPOS>MOLECULE
CHEMBL59041__12
   77    78     0     0     0
SMALL
USER_CHARGES

@<TRIPOS>ATOM
      1 C1         -0.0187    1.5258    0.0104 C.3       1 <0>        -0.1550
      2 C2          0.0021   -0.0041    0.0020 C.3       1 <0>        -0.1264
      3 C3         -1.4333   -0.5336    0.0129 C.3       1 <0>        -0.1211
      4 C4         -1.4126   -2.0635    0.0045 C.3       1 <0>        -0.1218
      5 C5         -2.8479   -2.5931    0.0153 C.3       1 <0>        -0.1201
      6 C6         -2.8272   -4.1229    0.0069 C.3       1 <0>        -0.1201
      7 C7         -4.2626   -4.6525    0.0178 C.3       1 <0>        -0.1200
      8 C8         -4.2418   -6.1823    0.0094 C.3       1 <0>        -0.1043
      9 C9         -5.6772   -6.7119    0.0202 C.3       1 <0>        -0.1407
     10 C10        -5.6568   -8.2187    0.0119 C.2       1 <0>         0.5151
     11 O1         -4.5984   -8.8108   -0.0014 O.2       1 <0>        -0.4887
     12 N1         -6.8147   -8.9084    0.0193 N.am      1 <0>        -0.7599
     13 C11        -6.7948  -10.3733    0.0112 C.3       1 <0>         0.0947
     14 H1         -5.9426  -10.7283    0.5907 H         1 <0>         0.1231
     15 C12        -8.0892  -10.9043    0.6304 C.3       1 <0>        -0.0209
     16 N2         -8.2633  -10.3282    1.9705 N.4       1 <0>        -0.4960
     17 C13        -9.5062  -10.8381    2.5650 C.3       1 <0>         0.0810
     18 C14       -10.6767  -10.3618    1.7556 C.2       1 <0>        -0.1916
     19 C15       -11.7786   -9.9151    2.2673 C.2       1 <0>        -0.0810
     20 C16       -12.0355   -9.8011    3.7414 C.3       1 <0>         0.1071
     21 C17       -11.0321  -10.6557    4.5189 C.3       1 <0>         0.0889
     22 C18        -9.6225  -10.3360    4.0058 C.3       1 <0>         0.0951
     23 O2         -9.4076   -8.9237    4.0412 O.3       1 <0>        -0.5532
     24 O3        -11.1173  -10.3484    5.9119 O.3       1 <0>        -0.5450
     25 O4        -11.9044   -8.4354    4.1409 O.3       1 <0>        -0.5285
     26 C19       -12.8711   -9.4820    1.3240 C.3       1 <0>         0.0962
     27 O5        -12.4365   -9.6660   -0.0248 O.3       1 <0>        -0.5734
     28 C20        -6.6759  -10.8738   -1.4297 C.3       1 <0>         0.1461
     29 H2         -6.6611  -11.9637   -1.4357 H         1 <0>         0.1242
     30 C21        -5.4009  -10.3508   -2.0396 C.ar      1 <0>        -0.1150
     31 C22        -5.3437   -9.0544   -2.5160 C.ar      1 <0>        -0.1044
     32 C23        -4.1742   -8.5746   -3.0755 C.ar      1 <0>        -0.1086
     33 C24        -3.0618   -9.3911   -3.1580 C.ar      1 <0>        -0.1033
     34 C25        -3.1187  -10.6872   -2.6807 C.ar      1 <0>        -0.1093
     35 C26        -4.2869  -11.1655   -2.1174 C.ar      1 <0>        -0.0980
     36 O6         -7.7932  -10.4084   -2.1893 O.3       1 <0>        -0.5442
     37 H3          1.0039    1.9031    0.0027 H         1 <0>         0.0548
     38 H4         -0.5459    1.8868   -0.8726 H         1 <0>         0.0536
     39 H5         -0.5289    1.8773    0.9072 H         1 <0>         0.0535
     40 H6          0.5123   -0.3556   -0.8948 H         1 <0>         0.0607
     41 H7          0.5293   -0.3651    0.8851 H         1 <0>         0.0605
     42 H8         -1.9435   -0.1821    0.9097 H         1 <0>         0.0605
     43 H9         -1.9605   -0.1726   -0.8702 H         1 <0>         0.0607
     44 H10        -0.9024   -2.4150   -0.8923 H         1 <0>         0.0612
     45 H11        -0.8854   -2.4246    0.8875 H         1 <0>         0.0609
     46 H12        -3.3581   -2.2415    0.9121 H         1 <0>         0.0605
     47 H13        -3.3751   -2.2320   -0.8677 H         1 <0>         0.0610
     48 H14        -2.3170   -4.4744   -0.8899 H         1 <0>         0.0625
     49 H15        -2.3000   -4.4840    0.8900 H         1 <0>         0.0619
     50 H16        -4.7728   -4.3010    0.9146 H         1 <0>         0.0618
     51 H17        -4.7898   -4.2914   -0.8653 H         1 <0>         0.0627
     52 H18        -3.7316   -6.5338   -0.8874 H         1 <0>         0.0727
     53 H19        -3.7146   -6.5434    0.8924 H         1 <0>         0.0694
     54 H20        -6.1874   -6.3604    0.9170 H         1 <0>         0.0946
     55 H21        -6.2044   -6.3508   -0.8628 H         1 <0>         0.0960
     56 H22        -7.6612   -8.4349    0.0299 H         1 <0>         0.4010
     57 H23        -8.9344  -10.6239    0.0018 H         1 <0>         0.1498
     58 H24        -8.0371  -11.9904    0.7058 H         1 <0>         0.1505
     59 H25        -7.4810  -10.5878    2.5524 H         1 <0>         0.4298
     60 H26        -9.4873  -11.9279    2.5625 H         1 <0>         0.1581
     61 H27       -10.5944  -10.3934    0.6792 H         1 <0>         0.1529
     62 H28       -13.0471  -10.1437    3.9593 H         1 <0>         0.0789
     63 H29       -11.2493  -11.7118    4.3596 H         1 <0>         0.0887
     64 H30        -8.8828  -10.8380    4.6295 H         1 <0>         0.0944
     65 H31        -9.4671   -8.5389    4.9263 H         1 <0>         0.4150
     66 H32       -11.9886  -10.5119    6.2981 H         1 <0>         0.3984
     67 H33       -12.5179   -7.8348    3.6960 H         1 <0>         0.3837
     68 H34       -13.7641  -10.0809    1.5029 H         1 <0>         0.0736
     69 H35       -13.0999   -8.4295    1.4916 H         1 <0>         0.0725
     70 H36       -13.0912   -9.4072   -0.6878 H         1 <0>         0.3987
     71 H37        -6.2128   -8.4165   -2.4516 H         1 <0>         0.1078
     72 H38        -4.1297   -7.5620   -3.4484 H         1 <0>         0.1203
     73 H39        -2.1483   -9.0165   -3.5957 H         1 <0>         0.1231
     74 H40        -2.2497  -11.3251   -2.7454 H         1 <0>         0.1238
     75 H41        -4.3303  -12.1769   -1.7411 H         1 <0>         0.1190
     76 H42        -7.8692   -9.4451   -2.2272 H         1 <0>         0.3758
     77 H43        -8.3116   -9.3228    1.9007 H         1 <0>         0.4336
@<TRIPOS>BOND
     1    1    2 1
     2    1   37 1
     3    1   38 1
     4    1   39 1
     5    2    3 1
     6    2   40 1
     7    2   41 1
     8    3    4 1
     9    3   42 1
    10    3   43 1
    11    4    5 1
    12    4   44 1
    13    4   45 1
    14    5    6 1
    15    5   46 1
    16    5   47 1
    17    6    7 1
    18    6   48 1
    19    6   49 1
    20    7    8 1
    21    7   50 1
    22    7   51 1
    23    8    9 1
    24    8   52 1
    25    8   53 1
    26    9   10 1
    27    9   54 1
    28    9   55 1
    29   10   11 2
    30   10   12 am
    31   12   13 1
    32   12   56 1
    33   13   14 1
    34   13   15 1
    35   13   28 1
    36   15   16 1
    37   15   57 1
    38   15   58 1
    39   16   17 1
    40   16   59 1
    41   16   77 1
    42   17   22 1
    43   17   18 1
    44   17   60 1
    45   18   19 2
    46   18   61 1
    47   19   20 1
    48   19   26 1
    49   20   21 1
    50   20   25 1
    51   20   62 1
    52   21   22 1
    53   21   24 1
    54   21   63 1
    55   22   23 1
    56   22   64 1
    57   23   65 1
    58   24   66 1
    59   25   67 1
    60   26   27 1
    61   26   68 1
    62   26   69 1
    63   27   70 1
    64   28   29 1
    65   28   30 1
    66   28   36 1
    67   30   35 ar
    68   30   31 ar
    69   31   32 ar
    70   31   71 1
    71   32   33 ar
    72   32   72 1
    73   33   34 ar
    74   33   73 1
    75   34   35 ar
    76   34   74 1
    77   35   75 1
    78   36   76 1
@<TRIPOS>MOLECULE
CHEMBL59041__13
   76    77     0     0     0
SMALL
USER_CHARGES

@<TRIPOS>ATOM
      1 C1         -0.0187    1.5258    0.0104 C.3       1 <0>        -0.1541
      2 C2          0.0021   -0.0041    0.0020 C.3       1 <0>        -0.1264
      3 C3          0.7182   -0.4975   -1.2568 C.3       1 <0>        -0.1209
      4 C4          0.7390   -2.0273   -1.2652 C.3       1 <0>        -0.1216
      5 C5          1.4551   -2.5207   -2.5240 C.3       1 <0>        -0.1200
      6 C6          1.4758   -4.0506   -2.5324 C.3       1 <0>        -0.1203
      7 C7          2.1920   -4.5440   -3.7912 C.3       1 <0>        -0.1200
      8 C8          2.2127   -6.0738   -3.7996 C.3       1 <0>        -0.1037
      9 C9          2.9289   -6.5673   -5.0584 C.3       1 <0>        -0.1407
     10 C10         2.9493   -8.0741   -5.0667 C.2       1 <0>         0.5060
     11 O1          2.4411   -8.6925   -4.1555 O.2       1 <0>        -0.5284
     12 N1          3.5323   -8.7345   -6.0867 N.am      1 <0>        -0.7166
     13 C11         3.5522  -10.1994   -6.0948 C.3       1 <0>         0.1235
     14 H1          2.6300  -10.5777   -5.6537 H         1 <0>         0.0957
     15 C12         3.6711  -10.6999   -7.5357 C.3       1 <0>         0.0475
     16 N2          2.5886  -10.1243   -8.3449 N.3       1 <0>        -0.6596
     17 C13         2.6710  -10.5839   -9.7377 C.3       1 <0>         0.1237
     18 C14         3.6334   -9.7142  -10.4924 C.2       1 <0>        -0.0769
     19 C15         3.4234   -9.2693  -11.6897 C.2       1 <0>        -0.1793
     20 C16         2.1836   -9.5524  -12.4864 C.3       1 <0>         0.1294
     21 C17         1.4324  -10.7433  -11.8872 C.3       1 <0>         0.0805
     22 C18         1.2830  -10.5131  -10.3782 C.3       1 <0>         0.1182
     23 O2          0.7108   -9.2249  -10.1434 O.3       1 <0>        -0.5251
     24 O3          0.1398  -10.8472  -12.4875 O.3       1 <0>        -0.5516
     25 O4          1.3369   -8.4013  -12.4699 O.3       1 <0>        -0.5329
     26 C19         4.4902   -8.4136  -12.3227 C.3       1 <0>         0.1142
     27 O5          5.5810   -8.2611  -11.4123 O.3       1 <0>        -0.5683
     28 C20         4.7485  -10.6977   -5.2814 C.3       1 <0>         0.1399
     29 H2          5.6706  -10.3194   -5.7225 H         1 <0>         0.0635
     30 C21         4.7689  -12.2045   -5.2897 C.ar      1 <0>        -0.0841
     31 C22         3.9359  -12.9117   -4.4431 C.ar      1 <0>        -0.0883
     32 C23         3.9546  -14.2939   -4.4506 C.ar      1 <0>        -0.1225
     33 C24         4.8060  -14.9689   -5.3052 C.ar      1 <0>        -0.1158
     34 C25         5.6384  -14.2617   -6.1526 C.ar      1 <0>        -0.1226
     35 C26         5.6166  -12.8795   -6.1480 C.ar      1 <0>        -0.1102
     36 O6          4.6374  -10.2302   -3.9356 O.3       1 <0>        -0.5435
     37 H3          1.0039    1.9031    0.0027 H         1 <0>         0.0531
     38 H4         -0.5459    1.8868   -0.8726 H         1 <0>         0.0532
     39 H5         -0.5289    1.8773    0.9072 H         1 <0>         0.0532
     40 H6          0.5293   -0.3651    0.8851 H         1 <0>         0.0603
     41 H7         -1.0205   -0.3814    0.0098 H         1 <0>         0.0603
     42 H8          0.1910   -0.1364   -2.1398 H         1 <0>         0.0604
     43 H9          1.7408   -0.1202   -1.2645 H         1 <0>         0.0603
     44 H10         1.2661   -2.3884   -0.3821 H         1 <0>         0.0608
     45 H11        -0.2836   -2.4046   -1.2575 H         1 <0>         0.0608
     46 H12         0.9279   -2.1597   -3.4071 H         1 <0>         0.0604
     47 H13         2.4777   -2.1435   -2.5317 H         1 <0>         0.0602
     48 H14         2.0030   -4.4117   -1.6494 H         1 <0>         0.0618
     49 H15         0.4533   -4.4279   -2.5247 H         1 <0>         0.0618
     50 H16         1.6648   -4.1829   -4.6743 H         1 <0>         0.0616
     51 H17         3.2146   -4.1667   -3.7990 H         1 <0>         0.0612
     52 H18         2.7399   -6.4349   -2.9166 H         1 <0>         0.0692
     53 H19         1.1901   -6.4511   -3.7919 H         1 <0>         0.0691
     54 H20         2.4017   -6.2062   -5.9415 H         1 <0>         0.0946
     55 H21         3.9515   -6.1900   -5.0662 H         1 <0>         0.0910
     56 H22         3.9388   -8.2400   -6.8155 H         1 <0>         0.4067
     57 H23         4.6335  -10.3962   -7.9476 H         1 <0>         0.0806
     58 H24         3.5966  -11.7872   -7.5499 H         1 <0>         0.0515
     59 H25         1.6865  -10.3378   -7.9464 H         1 <0>         0.3506
     60 H26         3.0260  -11.6142   -9.7578 H         1 <0>         0.0676
     61 H27         4.5586   -9.4423  -10.0061 H         1 <0>         0.1262
     62 H28         2.4599   -9.7803  -13.5159 H         1 <0>         0.0565
     63 H29         1.9966  -11.6590  -12.0642 H         1 <0>         0.0748
     64 H30         0.6427  -11.2851   -9.9513 H         1 <0>         0.0607
     65 H31        -0.1712   -9.1112  -10.5232 H         1 <0>         0.3815
     66 H32         0.1603  -10.9775  -13.4455 H         1 <0>         0.3832
     67 H33         1.7437   -7.6084  -12.8452 H         1 <0>         0.3727
     68 H34         4.8437   -8.8906  -13.2368 H         1 <0>         0.0532
     69 H35         4.0761   -7.4338  -12.5609 H         1 <0>         0.0542
     70 H36         6.3061   -7.7204  -11.7543 H         1 <0>         0.3837
     71 H37         3.2707  -12.3843   -3.7754 H         1 <0>         0.1285
     72 H38         3.3043  -14.8464   -3.7887 H         1 <0>         0.1233
     73 H39         4.8212  -16.0488   -5.3107 H         1 <0>         0.1221
     74 H40         6.3038  -14.7891   -6.8200 H         1 <0>         0.1233
     75 H41         6.2642  -12.3271   -6.8126 H         1 <0>         0.1212
     76 H42         4.6184   -9.2668   -3.8542 H         1 <0>         0.3759
@<TRIPOS>BOND
     1    1    2 1
     2    1   37 1
     3    1   38 1
     4    1   39 1
     5    2    3 1
     6    2   40 1
     7    2   41 1
     8    3    4 1
     9    3   42 1
    10    3   43 1
    11    4    5 1
    12    4   44 1
    13    4   45 1
    14    5    6 1
    15    5   46 1
    16    5   47 1
    17    6    7 1
    18    6   48 1
    19    6   49 1
    20    7    8 1
    21    7   50 1
    22    7   51 1
    23    8    9 1
    24    8   52 1
    25    8   53 1
    26    9   10 1
    27    9   54 1
    28    9   55 1
    29   10   11 2
    30   10   12 am
    31   12   13 1
    32   12   56 1
    33   13   14 1
    34   13   15 1
    35   13   28 1
    36   15   16 1
    37   15   57 1
    38   15   58 1
    39   16   17 1
    40   16   59 1
    41   17   22 1
    42   17   18 1
    43   17   60 1
    44   18   19 2
    45   18   61 1
    46   19   20 1
    47   19   26 1
    48   20   21 1
    49   20   25 1
    50   20   62 1
    51   21   22 1
    52   21   24 1
    53   21   63 1
    54   22   23 1
    55   22   64 1
    56   23   65 1
    57   24   66 1
    58   25   67 1
    59   26   27 1
    60   26   68 1
    61   26   69 1
    62   27   70 1
    63   28   29 1
    64   28   30 1
    65   28   36 1
    66   30   35 ar
    67   30   31 ar
    68   31   32 ar
    69   31   71 1
    70   32   33 ar
    71   32   72 1
    72   33   34 ar
    73   33   73 1
    74   34   35 ar
    75   34   74 1
    76   35   75 1
    77   36   76 1
@<TRIPOS>MOLECULE
CHEMBL59041__14
   77    78     0     0     0
SMALL
USER_CHARGES

@<TRIPOS>ATOM
      1 C1         -0.0187    1.5258    0.0104 C.3       1 <0>        -0.1550
      2 C2          0.0021   -0.0041    0.0020 C.3       1 <0>        -0.1264
      3 C3         -1.4333   -0.5336    0.0129 C.3       1 <0>        -0.1210
      4 C4         -1.4126   -2.0635    0.0045 C.3       1 <0>        -0.1218
      5 C5         -2.8479   -2.5931    0.0153 C.3       1 <0>        -0.1200
      6 C6         -2.8272   -4.1229    0.0069 C.3       1 <0>        -0.1202
      7 C7         -4.2626   -4.6525    0.0178 C.3       1 <0>        -0.1199
      8 C8         -4.2418   -6.1823    0.0094 C.3       1 <0>        -0.1049
      9 C9         -5.6772   -6.7119    0.0202 C.3       1 <0>        -0.1404
     10 C10        -5.6568   -8.2187    0.0119 C.2       1 <0>         0.5138
     11 O1         -4.5984   -8.8108   -0.0014 O.2       1 <0>        -0.4865
     12 N1         -6.8147   -8.9084    0.0193 N.am      1 <0>        -0.7611
     13 C11        -6.7948  -10.3733    0.0112 C.3       1 <0>         0.0941
     14 H1         -5.9426  -10.7283    0.5907 H         1 <0>         0.1242
     15 C12        -8.0892  -10.9043    0.6304 C.3       1 <0>        -0.0195
     16 N2         -8.2633  -10.3282    1.9705 N.4       1 <0>        -0.4991
     17 C13        -9.5062  -10.8381    2.5650 C.3       1 <0>         0.0790
     18 C14       -10.6767  -10.3618    1.7556 C.2       1 <0>        -0.1922
     19 C15       -11.7786   -9.9151    2.2673 C.2       1 <0>        -0.0878
     20 C16       -12.0355   -9.8011    3.7414 C.3       1 <0>         0.0970
     21 C17       -11.0321  -10.6557    4.5189 C.3       1 <0>         0.0949
     22 C18        -9.6225  -10.3360    4.0058 C.3       1 <0>         0.0962
     23 O2         -8.6528  -10.9941    4.8235 O.3       1 <0>        -0.5627
     24 O3        -11.1173  -10.3484    5.9119 O.3       1 <0>        -0.5442
     25 O4        -11.9044   -8.4354    4.1409 O.3       1 <0>        -0.5384
     26 C19       -12.8711   -9.4820    1.3240 C.3       1 <0>         0.0960
     27 O5        -12.4365   -9.6660   -0.0248 O.3       1 <0>        -0.5734
     28 C20        -6.6759  -10.8738   -1.4297 C.3       1 <0>         0.1463
     29 H2         -6.6611  -11.9637   -1.4357 H         1 <0>         0.1247
     30 C21        -5.4009  -10.3508   -2.0396 C.ar      1 <0>        -0.1152
     31 C22        -5.3437   -9.0544   -2.5160 C.ar      1 <0>        -0.1048
     32 C23        -4.1742   -8.5746   -3.0755 C.ar      1 <0>        -0.1089
     33 C24        -3.0618   -9.3911   -3.1580 C.ar      1 <0>        -0.1032
     34 C25        -3.1187  -10.6872   -2.6807 C.ar      1 <0>        -0.1090
     35 C26        -4.2869  -11.1655   -2.1174 C.ar      1 <0>        -0.0977
     36 O6         -7.7932  -10.4084   -2.1893 O.3       1 <0>        -0.5440
     37 H3          1.0039    1.9031    0.0027 H         1 <0>         0.0549
     38 H4         -0.5459    1.8868   -0.8726 H         1 <0>         0.0536
     39 H5         -0.5289    1.8773    0.9072 H         1 <0>         0.0535
     40 H6          0.5123   -0.3556   -0.8948 H         1 <0>         0.0607
     41 H7          0.5293   -0.3651    0.8851 H         1 <0>         0.0605
     42 H8         -1.9435   -0.1821    0.9097 H         1 <0>         0.0605
     43 H9         -1.9605   -0.1726   -0.8702 H         1 <0>         0.0607
     44 H10        -0.9024   -2.4150   -0.8923 H         1 <0>         0.0613
     45 H11        -0.8854   -2.4246    0.8875 H         1 <0>         0.0610
     46 H12        -3.3581   -2.2415    0.9121 H         1 <0>         0.0604
     47 H13        -3.3751   -2.2320   -0.8677 H         1 <0>         0.0610
     48 H14        -2.3170   -4.4744   -0.8899 H         1 <0>         0.0627
     49 H15        -2.3000   -4.4840    0.8900 H         1 <0>         0.0620
     50 H16        -4.7728   -4.3010    0.9146 H         1 <0>         0.0615
     51 H17        -4.7898   -4.2914   -0.8653 H         1 <0>         0.0627
     52 H18        -3.7316   -6.5338   -0.8874 H         1 <0>         0.0732
     53 H19        -3.7146   -6.5434    0.8924 H         1 <0>         0.0697
     54 H20        -6.1874   -6.3604    0.9170 H         1 <0>         0.0937
     55 H21        -6.2044   -6.3508   -0.8628 H         1 <0>         0.0965
     56 H22        -7.6612   -8.4349    0.0299 H         1 <0>         0.4000
     57 H23        -8.9344  -10.6239    0.0018 H         1 <0>         0.1502
     58 H24        -8.0371  -11.9904    0.7058 H         1 <0>         0.1520
     59 H25        -7.4810  -10.5878    2.5524 H         1 <0>         0.4379
     60 H26        -9.4873  -11.9279    2.5625 H         1 <0>         0.1585
     61 H27       -10.5944  -10.3934    0.6792 H         1 <0>         0.1601
     62 H28       -13.0471  -10.1437    3.9593 H         1 <0>         0.0876
     63 H29       -11.2493  -11.7118    4.3596 H         1 <0>         0.0909
     64 H30        -9.4585   -9.2587    4.0328 H         1 <0>         0.0954
     65 H31        -8.6711  -10.7223    5.7514 H         1 <0>         0.4158
     66 H32       -11.9886  -10.5119    6.2981 H         1 <0>         0.3998
     67 H33       -12.5179   -7.8348    3.6960 H         1 <0>         0.3887
     68 H34       -13.7641  -10.0809    1.5029 H         1 <0>         0.0766
     69 H35       -13.0999   -8.4295    1.4916 H         1 <0>         0.0742
     70 H36       -13.0912   -9.4072   -0.6878 H         1 <0>         0.4002
     71 H37        -6.2128   -8.4165   -2.4516 H         1 <0>         0.1078
     72 H38        -4.1297   -7.5620   -3.4484 H         1 <0>         0.1203
     73 H39        -2.1483   -9.0165   -3.5957 H         1 <0>         0.1232
     74 H40        -2.2497  -11.3251   -2.7454 H         1 <0>         0.1240
     75 H41        -4.3303  -12.1769   -1.7411 H         1 <0>         0.1194
     76 H42        -7.8692   -9.4451   -2.2272 H         1 <0>         0.3754
     77 H43        -8.3116   -9.3228    1.9007 H         1 <0>         0.4230
@<TRIPOS>BOND
     1    1    2 1
     2    1   37 1
     3    1   38 1
     4    1   39 1
     5    2    3 1
     6    2   40 1
     7    2   41 1
     8    3    4 1
     9    3   42 1
    10    3   43 1
    11    4    5 1
    12    4   44 1
    13    4   45 1
    14    5    6 1
    15    5   46 1
    16    5   47 1
    17    6    7 1
    18    6   48 1
    19    6   49 1
    20    7    8 1
    21    7   50 1
    22    7   51 1
    23    8    9 1
    24    8   52 1
    25    8   53 1
    26    9   10 1
    27    9   54 1
    28    9   55 1
    29   10   11 2
    30   10   12 am
    31   12   13 1
    32   12   56 1
    33   13   14 1
    34   13   15 1
    35   13   28 1
    36   15   16 1
    37   15   57 1
    38   15   58 1
    39   16   17 1
    40   16   59 1
    41   16   77 1
    42   17   22 1
    43   17   18 1
    44   17   60 1
    45   18   19 2
    46   18   61 1
    47   19   20 1
    48   19   26 1
    49   20   21 1
    50   20   25 1
    51   20   62 1
    52   21   22 1
    53   21   24 1
    54   21   63 1
    55   22   23 1
    56   22   64 1
    57   23   65 1
    58   24   66 1
    59   25   67 1
    60   26   27 1
    61   26   68 1
    62   26   69 1
    63   27   70 1
    64   28   29 1
    65   28   30 1
    66   28   36 1
    67   30   35 ar
    68   30   31 ar
    69   31   32 ar
    70   31   71 1
    71   32   33 ar
    72   32   72 1
    73   33   34 ar
    74   33   73 1
    75   34   35 ar
    76   34   74 1
    77   35   75 1
    78   36   76 1
@<TRIPOS>MOLECULE
CHEMBL59041__15
   76    77     0     0     0
SMALL
USER_CHARGES

@<TRIPOS>ATOM
      1 C1         -0.0187    1.5258    0.0104 C.3       1 <0>        -0.1541
      2 C2          0.0021   -0.0041    0.0020 C.3       1 <0>        -0.1264
      3 C3          0.7182   -0.4975   -1.2568 C.3       1 <0>        -0.1209
      4 C4          0.7390   -2.0273   -1.2652 C.3       1 <0>        -0.1217
      5 C5          1.4551   -2.5207   -2.5240 C.3       1 <0>        -0.1199
      6 C6          1.4758   -4.0506   -2.5324 C.3       1 <0>        -0.1205
      7 C7          2.1920   -4.5440   -3.7912 C.3       1 <0>        -0.1199
      8 C8          2.2127   -6.0738   -3.7996 C.3       1 <0>        -0.1042
      9 C9          2.9289   -6.5673   -5.0584 C.3       1 <0>        -0.1406
     10 C10         2.9493   -8.0741   -5.0667 C.2       1 <0>         0.5046
     11 O1          2.4411   -8.6925   -4.1555 O.2       1 <0>        -0.5264
     12 N1          3.5323   -8.7345   -6.0867 N.am      1 <0>        -0.7182
     13 C11         3.5522  -10.1994   -6.0948 C.3       1 <0>         0.1224
     14 H1          2.6300  -10.5777   -5.6537 H         1 <0>         0.0969
     15 C12         3.6711  -10.6999   -7.5357 C.3       1 <0>         0.0501
     16 N2          2.5886  -10.1243   -8.3449 N.3       1 <0>        -0.6704
     17 C13         2.6710  -10.5839   -9.7377 C.3       1 <0>         0.1231
     18 C14         3.6334   -9.7142  -10.4924 C.2       1 <0>        -0.0789
     19 C15         3.4234   -9.2693  -11.6897 C.2       1 <0>        -0.1861
     20 C16         2.1836   -9.5524  -12.4864 C.3       1 <0>         0.1192
     21 C17         1.4324  -10.7433  -11.8872 C.3       1 <0>         0.0872
     22 C18         1.2830  -10.5131  -10.3782 C.3       1 <0>         0.1164
     23 O2          0.4436  -11.5252   -9.8186 O.3       1 <0>        -0.5639
     24 O3          0.1398  -10.8472  -12.4875 O.3       1 <0>        -0.5508
     25 O4          1.3369   -8.4013  -12.4699 O.3       1 <0>        -0.5435
     26 C19         4.4902   -8.4136  -12.3227 C.3       1 <0>         0.1139
     27 O5          5.5810   -8.2611  -11.4123 O.3       1 <0>        -0.5684
     28 C20         4.7485  -10.6977   -5.2814 C.3       1 <0>         0.1407
     29 H2          5.6706  -10.3194   -5.7225 H         1 <0>         0.0635
     30 C21         4.7689  -12.2045   -5.2897 C.ar      1 <0>        -0.0848
     31 C22         3.9359  -12.9117   -4.4431 C.ar      1 <0>        -0.0878
     32 C23         3.9546  -14.2939   -4.4506 C.ar      1 <0>        -0.1221
     33 C24         4.8060  -14.9689   -5.3052 C.ar      1 <0>        -0.1153
     34 C25         5.6384  -14.2617   -6.1526 C.ar      1 <0>        -0.1224
     35 C26         5.6166  -12.8795   -6.1480 C.ar      1 <0>        -0.1101
     36 O6          4.6374  -10.2302   -3.9356 O.3       1 <0>        -0.5432
     37 H3          1.0039    1.9031    0.0027 H         1 <0>         0.0531
     38 H4         -0.5459    1.8868   -0.8726 H         1 <0>         0.0532
     39 H5         -0.5289    1.8773    0.9072 H         1 <0>         0.0533
     40 H6          0.5293   -0.3651    0.8851 H         1 <0>         0.0604
     41 H7         -1.0205   -0.3814    0.0098 H         1 <0>         0.0604
     42 H8          0.1910   -0.1364   -2.1398 H         1 <0>         0.0603
     43 H9          1.7408   -0.1202   -1.2645 H         1 <0>         0.0603
     44 H10         1.2661   -2.3884   -0.3821 H         1 <0>         0.0609
     45 H11        -0.2836   -2.4046   -1.2575 H         1 <0>         0.0608
     46 H12         0.9279   -2.1597   -3.4071 H         1 <0>         0.0603
     47 H13         2.4777   -2.1435   -2.5317 H         1 <0>         0.0602
     48 H14         2.0030   -4.4117   -1.6494 H         1 <0>         0.0621
     49 H15         0.4533   -4.4279   -2.5247 H         1 <0>         0.0619
     50 H16         1.6648   -4.1829   -4.6743 H         1 <0>         0.0613
     51 H17         3.2146   -4.1667   -3.7990 H         1 <0>         0.0613
     52 H18         2.7399   -6.4349   -2.9166 H         1 <0>         0.0697
     53 H19         1.1901   -6.4511   -3.7919 H         1 <0>         0.0693
     54 H20         2.4017   -6.2062   -5.9415 H         1 <0>         0.0937
     55 H21         3.9515   -6.1900   -5.0662 H         1 <0>         0.0915
     56 H22         3.9388   -8.2400   -6.8155 H         1 <0>         0.4059
     57 H23         4.6335  -10.3962   -7.9476 H         1 <0>         0.0801
     58 H24         3.5966  -11.7872   -7.5499 H         1 <0>         0.0551
     59 H25         1.6865  -10.3378   -7.9464 H         1 <0>         0.3553
     60 H26         3.0260  -11.6142   -9.7578 H         1 <0>         0.0684
     61 H27         4.5586   -9.4423  -10.0061 H         1 <0>         0.1334
     62 H28         2.4599   -9.7803  -13.5159 H         1 <0>         0.0654
     63 H29         1.9966  -11.6590  -12.0642 H         1 <0>         0.0768
     64 H30         0.8465   -9.5305  -10.1991 H         1 <0>         0.0828
     65 H31        -0.4530  -11.5371  -10.1806 H         1 <0>         0.3922
     66 H32         0.1603  -10.9775  -13.4455 H         1 <0>         0.3845
     67 H33         1.7437   -7.6084  -12.8452 H         1 <0>         0.3777
     68 H34         4.8437   -8.8906  -13.2368 H         1 <0>         0.0561
     69 H35         4.0761   -7.4338  -12.5609 H         1 <0>         0.0557
     70 H36         6.3061   -7.7204  -11.7543 H         1 <0>         0.3852
     71 H37         3.2707  -12.3843   -3.7754 H         1 <0>         0.1284
     72 H38         3.3043  -14.8464   -3.7887 H         1 <0>         0.1234
     73 H39         4.8212  -16.0488   -5.3107 H         1 <0>         0.1222
     74 H40         6.3038  -14.7891   -6.8200 H         1 <0>         0.1233
     75 H41         6.2642  -12.3271   -6.8126 H         1 <0>         0.1209
     76 H42         4.6184   -9.2668   -3.8542 H         1 <0>         0.3754
@<TRIPOS>BOND
     1    1    2 1
     2    1   37 1
     3    1   38 1
     4    1   39 1
     5    2    3 1
     6    2   40 1
     7    2   41 1
     8    3    4 1
     9    3   42 1
    10    3   43 1
    11    4    5 1
    12    4   44 1
    13    4   45 1
    14    5    6 1
    15    5   46 1
    16    5   47 1
    17    6    7 1
    18    6   48 1
    19    6   49 1
    20    7    8 1
    21    7   50 1
    22    7   51 1
    23    8    9 1
    24    8   52 1
    25    8   53 1
    26    9   10 1
    27    9   54 1
    28    9   55 1
    29   10   11 2
    30   10   12 am
    31   12   13 1
    32   12   56 1
    33   13   14 1
    34   13   15 1
    35   13   28 1
    36   15   16 1
    37   15   57 1
    38   15   58 1
    39   16   17 1
    40   16   59 1
    41   17   22 1
    42   17   18 1
    43   17   60 1
    44   18   19 2
    45   18   61 1
    46   19   20 1
    47   19   26 1
    48   20   21 1
    49   20   25 1
    50   20   62 1
    51   21   22 1
    52   21   24 1
    53   21   63 1
    54   22   23 1
    55   22   64 1
    56   23   65 1
    57   24   66 1
    58   25   67 1
    59   26   27 1
    60   26   68 1
    61   26   69 1
    62   27   70 1
    63   28   29 1
    64   28   30 1
    65   28   36 1
    66   30   35 ar
    67   30   31 ar
    68   31   32 ar
    69   31   71 1
    70   32   33 ar
    71   32   72 1
    72   33   34 ar
    73   33   73 1
    74   34   35 ar
    75   34   74 1
    76   35   75 1
    77   36   76 1
@<TRIPOS>MOLECULE
CHEMBL59041__16
   77    78     0     0     0
SMALL
USER_CHARGES

@<TRIPOS>ATOM
      1 C1         -0.0187    1.5258    0.0104 C.3       1 <0>        -0.1550
      2 C2          0.0021   -0.0041    0.0020 C.3       1 <0>        -0.1264
      3 C3         -1.4333   -0.5336    0.0129 C.3       1 <0>        -0.1211
      4 C4         -1.4126   -2.0635    0.0045 C.3       1 <0>        -0.1217
      5 C5         -2.8479   -2.5931    0.0153 C.3       1 <0>        -0.1201
      6 C6         -2.8272   -4.1229    0.0069 C.3       1 <0>        -0.1201
      7 C7         -4.2626   -4.6525    0.0178 C.3       1 <0>        -0.1201
      8 C8         -4.2418   -6.1823    0.0094 C.3       1 <0>        -0.1045
      9 C9         -5.6772   -6.7119    0.0202 C.3       1 <0>        -0.1408
     10 C10        -5.6568   -8.2187    0.0119 C.2       1 <0>         0.5143
     11 O1         -4.5984   -8.8108   -0.0014 O.2       1 <0>        -0.4878
     12 N1         -6.8147   -8.9084    0.0193 N.am      1 <0>        -0.7615
     13 C11        -6.7948  -10.3733    0.0112 C.3       1 <0>         0.0944
     14 H1         -5.9426  -10.7283    0.5907 H         1 <0>         0.1235
     15 C12        -8.0892  -10.9043    0.6304 C.3       1 <0>        -0.0188
     16 N2         -8.2633  -10.3282    1.9705 N.4       1 <0>        -0.4994
     17 C13        -9.5062  -10.8381    2.5650 C.3       1 <0>         0.0799
     18 C14        -9.3902  -12.3208    2.7649 C.2       1 <0>        -0.1915
     19 C15        -9.7903  -12.9429    3.8272 C.2       1 <0>        -0.0880
     20 C16       -10.4163  -12.2669    5.0118 C.3       1 <0>         0.0970
     21 C17       -10.8945  -10.8652    4.6269 C.3       1 <0>         0.0953
     22 C18        -9.7493  -10.1428    3.9063 C.3       1 <0>         0.0959
     23 O2        -10.1081   -8.7779    3.6818 O.3       1 <0>        -0.5637
     24 O3        -11.2541  -10.1401    5.8046 O.3       1 <0>        -0.5443
     25 O4         -9.4540  -12.1670    6.0634 O.3       1 <0>        -0.5385
     26 C19        -9.6161  -14.4389    3.8778 C.3       1 <0>         0.0961
     27 O5         -9.0069  -14.8888    2.6659 O.3       1 <0>        -0.5745
     28 C20        -6.6759  -10.8738   -1.4297 C.3       1 <0>         0.1465
     29 H2         -6.6611  -11.9637   -1.4357 H         1 <0>         0.1246
     30 C21        -5.4009  -10.3508   -2.0396 C.ar      1 <0>        -0.1153
     31 C22        -5.3437   -9.0544   -2.5160 C.ar      1 <0>        -0.1047
     32 C23        -4.1742   -8.5746   -3.0755 C.ar      1 <0>        -0.1085
     33 C24        -3.0618   -9.3911   -3.1580 C.ar      1 <0>        -0.1032
     34 C25        -3.1187  -10.6872   -2.6807 C.ar      1 <0>        -0.1093
     35 C26        -4.2869  -11.1655   -2.1174 C.ar      1 <0>        -0.0979
     36 O6         -7.7932  -10.4084   -2.1893 O.3       1 <0>        -0.5449
     37 H3          1.0039    1.9031    0.0027 H         1 <0>         0.0548
     38 H4         -0.5459    1.8868   -0.8726 H         1 <0>         0.0537
     39 H5         -0.5289    1.8773    0.9072 H         1 <0>         0.0535
     40 H6          0.5123   -0.3556   -0.8948 H         1 <0>         0.0606
     41 H7          0.5293   -0.3651    0.8851 H         1 <0>         0.0604
     42 H8         -1.9435   -0.1821    0.9097 H         1 <0>         0.0605
     43 H9         -1.9605   -0.1726   -0.8702 H         1 <0>         0.0608
     44 H10        -0.9024   -2.4150   -0.8923 H         1 <0>         0.0612
     45 H11        -0.8854   -2.4246    0.8875 H         1 <0>         0.0608
     46 H12        -3.3581   -2.2415    0.9121 H         1 <0>         0.0606
     47 H13        -3.3751   -2.2320   -0.8677 H         1 <0>         0.0611
     48 H14        -2.3170   -4.4744   -0.8899 H         1 <0>         0.0625
     49 H15        -2.3000   -4.4840    0.8900 H         1 <0>         0.0618
     50 H16        -4.7728   -4.3010    0.9146 H         1 <0>         0.0618
     51 H17        -4.7898   -4.2914   -0.8653 H         1 <0>         0.0630
     52 H18        -3.7316   -6.5338   -0.8874 H         1 <0>         0.0729
     53 H19        -3.7146   -6.5434    0.8924 H         1 <0>         0.0693
     54 H20        -6.1874   -6.3604    0.9170 H         1 <0>         0.0947
     55 H21        -6.2044   -6.3508   -0.8628 H         1 <0>         0.0969
     56 H22        -7.6612   -8.4349    0.0299 H         1 <0>         0.4011
     57 H23        -8.9344  -10.6239    0.0018 H         1 <0>         0.1487
     58 H24        -8.0371  -11.9904    0.7058 H         1 <0>         0.1528
     59 H25        -7.4810  -10.5878    2.5524 H         1 <0>         0.4286
     60 H26       -10.3395  -10.6301    1.8939 H         1 <0>         0.1581
     61 H27        -8.9456  -12.9054    1.9730 H         1 <0>         0.1590
     62 H28       -11.2657  -12.8564    5.3569 H         1 <0>         0.0878
     63 H29       -11.7553  -10.9413    3.9626 H         1 <0>         0.0909
     64 H30        -8.8456  -10.1921    4.5137 H         1 <0>         0.0963
     65 H31       -10.2767   -8.2772    4.4917 H         1 <0>         0.4159
     66 H32       -11.9631  -10.5508    6.3182 H         1 <0>         0.3999
     67 H33        -9.1133  -13.0195    6.3671 H         1 <0>         0.3891
     68 H34        -8.9807  -14.7024    4.7234 H         1 <0>         0.0746
     69 H35       -10.5901  -14.9145    3.9931 H         1 <0>         0.0770
     70 H36        -8.8641  -15.8445    2.6287 H         1 <0>         0.4005
     71 H37        -6.2128   -8.4165   -2.4516 H         1 <0>         0.1081
     72 H38        -4.1297   -7.5620   -3.4484 H         1 <0>         0.1205
     73 H39        -2.1483   -9.0165   -3.5957 H         1 <0>         0.1232
     74 H40        -2.2497  -11.3251   -2.7454 H         1 <0>         0.1239
     75 H41        -4.3303  -12.1769   -1.7411 H         1 <0>         0.1191
     76 H42        -7.8692   -9.4451   -2.2272 H         1 <0>         0.3760
     77 H43        -8.3116   -9.3228    1.9007 H         1 <0>         0.4324
@<TRIPOS>BOND
     1    1    2 1
     2    1   37 1
     3    1   38 1
     4    1   39 1
     5    2    3 1
     6    2   40 1
     7    2   41 1
     8    3    4 1
     9    3   42 1
    10    3   43 1
    11    4    5 1
    12    4   44 1
    13    4   45 1
    14    5    6 1
    15    5   46 1
    16    5   47 1
    17    6    7 1
    18    6   48 1
    19    6   49 1
    20    7    8 1
    21    7   50 1
    22    7   51 1
    23    8    9 1
    24    8   52 1
    25    8   53 1
    26    9   10 1
    27    9   54 1
    28    9   55 1
    29   10   11 2
    30   10   12 am
    31   12   13 1
    32   12   56 1
    33   13   14 1
    34   13   15 1
    35   13   28 1
    36   15   16 1
    37   15   57 1
    38   15   58 1
    39   16   17 1
    40   16   59 1
    41   16   77 1
    42   17   22 1
    43   17   18 1
    44   17   60 1
    45   18   19 2
    46   18   61 1
    47   19   20 1
    48   19   26 1
    49   20   21 1
    50   20   25 1
    51   20   62 1
    52   21   22 1
    53   21   24 1
    54   21   63 1
    55   22   23 1
    56   22   64 1
    57   23   65 1
    58   24   66 1
    59   25   67 1
    60   26   27 1
    61   26   68 1
    62   26   69 1
    63   27   70 1
    64   28   29 1
    65   28   30 1
    66   28   36 1
    67   30   35 ar
    68   30   31 ar
    69   31   32 ar
    70   31   71 1
    71   32   33 ar
    72   32   72 1
    73   33   34 ar
    74   33   73 1
    75   34   35 ar
    76   34   74 1
    77   35   75 1
    78   36   76 1
@<TRIPOS>MOLECULE
CHEMBL59041__17
   76    77     0     0     0
SMALL
USER_CHARGES

@<TRIPOS>ATOM
      1 C1         -0.0187    1.5258    0.0104 C.3       1 <0>        -0.1542
      2 C2          0.0021   -0.0041    0.0020 C.3       1 <0>        -0.1264
      3 C3          0.7182   -0.4975   -1.2568 C.3       1 <0>        -0.1210
      4 C4          0.7390   -2.0273   -1.2652 C.3       1 <0>        -0.1216
      5 C5          1.4551   -2.5207   -2.5240 C.3       1 <0>        -0.1200
      6 C6          1.4758   -4.0506   -2.5324 C.3       1 <0>        -0.1203
      7 C7          2.1920   -4.5440   -3.7912 C.3       1 <0>        -0.1201
      8 C8          2.2127   -6.0738   -3.7996 C.3       1 <0>        -0.1038
      9 C9          2.9289   -6.5673   -5.0584 C.3       1 <0>        -0.1408
     10 C10         2.9493   -8.0741   -5.0667 C.2       1 <0>         0.5051
     11 O1          2.4411   -8.6925   -4.1555 O.2       1 <0>        -0.5283
     12 N1          3.5323   -8.7345   -6.0867 N.am      1 <0>        -0.7177
     13 C11         3.5522  -10.1994   -6.0948 C.3       1 <0>         0.1225
     14 H1          2.6300  -10.5777   -5.6537 H         1 <0>         0.0957
     15 C12         3.6711  -10.6999   -7.5357 C.3       1 <0>         0.0502
     16 N2          2.5886  -10.1243   -8.3449 N.3       1 <0>        -0.6618
     17 C13         2.6710  -10.5839   -9.7377 C.3       1 <0>         0.1243
     18 C14         1.9920  -11.9163   -9.8629 C.2       1 <0>        -0.1387
     19 C15         1.2078  -12.2418  -10.8400 C.2       1 <0>        -0.1685
     20 C16         0.8598  -11.3285  -11.9787 C.3       1 <0>         0.1168
     21 C17         1.8586  -10.1715  -12.0507 C.3       1 <0>         0.0835
     22 C18         1.9938   -9.5595  -10.6508 C.3       1 <0>         0.1362
     23 O2          2.7912   -8.3756  -10.7189 O.3       1 <0>        -0.5495
     24 O3          1.3816   -9.1811  -12.9638 O.3       1 <0>        -0.5497
     25 O4         -0.4560  -10.8067  -11.7823 O.3       1 <0>        -0.5427
     26 C19         0.6067  -13.6237  -10.8334 C.3       1 <0>         0.1089
     27 O5          1.0554  -14.3328   -9.6767 O.3       1 <0>        -0.5682
     28 C20         4.7485  -10.6977   -5.2814 C.3       1 <0>         0.1401
     29 H2          5.6706  -10.3194   -5.7225 H         1 <0>         0.0638
     30 C21         4.7689  -12.2045   -5.2897 C.ar      1 <0>        -0.0840
     31 C22         3.9359  -12.9117   -4.4431 C.ar      1 <0>        -0.0881
     32 C23         3.9546  -14.2939   -4.4506 C.ar      1 <0>        -0.1222
     33 C24         4.8060  -14.9689   -5.3052 C.ar      1 <0>        -0.1150
     34 C25         5.6384  -14.2617   -6.1526 C.ar      1 <0>        -0.1215
     35 C26         5.6166  -12.8795   -6.1480 C.ar      1 <0>        -0.1097
     36 O6          4.6374  -10.2302   -3.9356 O.3       1 <0>        -0.5435
     37 H3          1.0039    1.9031    0.0027 H         1 <0>         0.0532
     38 H4         -0.5459    1.8868   -0.8726 H         1 <0>         0.0532
     39 H5         -0.5289    1.8773    0.9072 H         1 <0>         0.0532
     40 H6          0.5293   -0.3651    0.8851 H         1 <0>         0.0603
     41 H7         -1.0205   -0.3814    0.0098 H         1 <0>         0.0602
     42 H8          0.1910   -0.1364   -2.1398 H         1 <0>         0.0604
     43 H9          1.7408   -0.1202   -1.2645 H         1 <0>         0.0604
     44 H10         1.2661   -2.3884   -0.3821 H         1 <0>         0.0608
     45 H11        -0.2836   -2.4046   -1.2575 H         1 <0>         0.0607
     46 H12         0.9279   -2.1597   -3.4071 H         1 <0>         0.0604
     47 H13         2.4777   -2.1435   -2.5317 H         1 <0>         0.0604
     48 H14         2.0030   -4.4117   -1.6494 H         1 <0>         0.0618
     49 H15         0.4533   -4.4279   -2.5247 H         1 <0>         0.0616
     50 H16         1.6648   -4.1829   -4.6743 H         1 <0>         0.0617
     51 H17         3.2146   -4.1667   -3.7990 H         1 <0>         0.0615
     52 H18         2.7399   -6.4349   -2.9166 H         1 <0>         0.0693
     53 H19         1.1901   -6.4511   -3.7919 H         1 <0>         0.0688
     54 H20         2.4017   -6.2062   -5.9415 H         1 <0>         0.0946
     55 H21         3.9515   -6.1900   -5.0662 H         1 <0>         0.0918
     56 H22         3.9388   -8.2400   -6.8155 H         1 <0>         0.4078
     57 H23         4.6335  -10.3962   -7.9476 H         1 <0>         0.0814
     58 H24         3.5966  -11.7872   -7.5499 H         1 <0>         0.0547
     59 H25         1.6865  -10.3378   -7.9464 H         1 <0>         0.3457
     60 H26         3.7180  -10.6859  -10.0231 H         1 <0>         0.0991
     61 H27         2.1689  -12.6494   -9.0898 H         1 <0>         0.1328
     62 H28         0.8882  -11.8890  -12.9131 H         1 <0>         0.0662
     63 H29         2.8276  -10.5441  -12.3829 H         1 <0>         0.0768
     64 H30         1.0055   -9.3172  -10.2601 H         1 <0>         0.0725
     65 H31         2.4197   -7.6830  -11.2823 H         1 <0>         0.3843
     66 H32         1.2576   -9.5055  -13.8663 H         1 <0>         0.3834
     67 H33        -1.1449  -11.4838  -11.7374 H         1 <0>         0.3777
     68 H34        -0.4804  -13.5469  -10.8134 H         1 <0>         0.0568
     69 H35         0.9167  -14.1591  -11.7308 H         1 <0>         0.0587
     70 H36         0.7071  -15.2322   -9.6070 H         1 <0>         0.3863
     71 H37         3.2707  -12.3843   -3.7754 H         1 <0>         0.1279
     72 H38         3.3043  -14.8464   -3.7887 H         1 <0>         0.1226
     73 H39         4.8212  -16.0488   -5.3107 H         1 <0>         0.1216
     74 H40         6.3038  -14.7891   -6.8200 H         1 <0>         0.1229
     75 H41         6.2642  -12.3271   -6.8126 H         1 <0>         0.1209
     76 H42         4.6184   -9.2668   -3.8542 H         1 <0>         0.3758
@<TRIPOS>BOND
     1    1    2 1
     2    1   37 1
     3    1   38 1
     4    1   39 1
     5    2    3 1
     6    2   40 1
     7    2   41 1
     8    3    4 1
     9    3   42 1
    10    3   43 1
    11    4    5 1
    12    4   44 1
    13    4   45 1
    14    5    6 1
    15    5   46 1
    16    5   47 1
    17    6    7 1
    18    6   48 1
    19    6   49 1
    20    7    8 1
    21    7   50 1
    22    7   51 1
    23    8    9 1
    24    8   52 1
    25    8   53 1
    26    9   10 1
    27    9   54 1
    28    9   55 1
    29   10   11 2
    30   10   12 am
    31   12   13 1
    32   12   56 1
    33   13   14 1
    34   13   15 1
    35   13   28 1
    36   15   16 1
    37   15   57 1
    38   15   58 1
    39   16   17 1
    40   16   59 1
    41   17   22 1
    42   17   18 1
    43   17   60 1
    44   18   19 2
    45   18   61 1
    46   19   20 1
    47   19   26 1
    48   20   21 1
    49   20   25 1
    50   20   62 1
    51   21   22 1
    52   21   24 1
    53   21   63 1
    54   22   23 1
    55   22   64 1
    56   23   65 1
    57   24   66 1
    58   25   67 1
    59   26   27 1
    60   26   68 1
    61   26   69 1
    62   27   70 1
    63   28   29 1
    64   28   30 1
    65   28   36 1
    66   30   35 ar
    67   30   31 ar
    68   31   32 ar
    69   31   71 1
    70   32   33 ar
    71   32   72 1
    72   33   34 ar
    73   33   73 1
    74   34   35 ar
    75   34   74 1
    76   35   75 1
    77   36   76 1
@<TRIPOS>MOLECULE
CHEMBL59041__18
   77    78     0     0     0
SMALL
USER_CHARGES

@<TRIPOS>ATOM
      1 C1         -0.0187    1.5258    0.0104 C.3       1 <0>        -0.1550
      2 C2          0.0021   -0.0041    0.0020 C.3       1 <0>        -0.1264
      3 C3         -1.4333   -0.5336    0.0129 C.3       1 <0>        -0.1210
      4 C4         -1.4126   -2.0635    0.0045 C.3       1 <0>        -0.1218
      5 C5         -2.8479   -2.5931    0.0153 C.3       1 <0>        -0.1200
      6 C6         -2.8272   -4.1229    0.0069 C.3       1 <0>        -0.1202
      7 C7         -4.2626   -4.6525    0.0178 C.3       1 <0>        -0.1199
      8 C8         -4.2418   -6.1823    0.0094 C.3       1 <0>        -0.1049
      9 C9         -5.6772   -6.7119    0.0202 C.3       1 <0>        -0.1403
     10 C10        -5.6568   -8.2187    0.0119 C.2       1 <0>         0.5140
     11 O1         -4.5984   -8.8108   -0.0014 O.2       1 <0>        -0.4865
     12 N1         -6.8147   -8.9084    0.0193 N.am      1 <0>        -0.7612
     13 C11        -6.7948  -10.3733    0.0112 C.3       1 <0>         0.0951
     14 H1         -5.9426  -10.7283    0.5907 H         1 <0>         0.1235
     15 C12        -8.0892  -10.9043    0.6304 C.3       1 <0>        -0.0192
     16 N2         -8.2633  -10.3282    1.9705 N.4       1 <0>        -0.4956
     17 C13        -9.5062  -10.8381    2.5650 C.3       1 <0>         0.0816
     18 C14        -9.3902  -12.3208    2.7649 C.2       1 <0>        -0.1909
     19 C15        -9.7903  -12.9429    3.8272 C.2       1 <0>        -0.0813
     20 C16       -10.4163  -12.2669    5.0118 C.3       1 <0>         0.1071
     21 C17       -10.8945  -10.8652    4.6269 C.3       1 <0>         0.0889
     22 C18        -9.7493  -10.1428    3.9063 C.3       1 <0>         0.0952
     23 O2         -8.5645  -10.2075    4.7026 O.3       1 <0>        -0.5522
     24 O3        -11.2541  -10.1401    5.8046 O.3       1 <0>        -0.5451
     25 O4         -9.4540  -12.1670    6.0634 O.3       1 <0>        -0.5287
     26 C19        -9.6161  -14.4389    3.8778 C.3       1 <0>         0.0963
     27 O5         -9.0069  -14.8888    2.6659 O.3       1 <0>        -0.5745
     28 C20        -6.6759  -10.8738   -1.4297 C.3       1 <0>         0.1464
     29 H2         -6.6611  -11.9637   -1.4357 H         1 <0>         0.1246
     30 C21        -5.4009  -10.3508   -2.0396 C.ar      1 <0>        -0.1152
     31 C22        -5.3437   -9.0544   -2.5160 C.ar      1 <0>        -0.1049
     32 C23        -4.1742   -8.5746   -3.0755 C.ar      1 <0>        -0.1088
     33 C24        -3.0618   -9.3911   -3.1580 C.ar      1 <0>        -0.1033
     34 C25        -3.1187  -10.6872   -2.6807 C.ar      1 <0>        -0.1091
     35 C26        -4.2869  -11.1655   -2.1174 C.ar      1 <0>        -0.0978
     36 O6         -7.7932  -10.4084   -2.1893 O.3       1 <0>        -0.5450
     37 H3          1.0039    1.9031    0.0027 H         1 <0>         0.0548
     38 H4         -0.5459    1.8868   -0.8726 H         1 <0>         0.0537
     39 H5         -0.5289    1.8773    0.9072 H         1 <0>         0.0535
     40 H6          0.5123   -0.3556   -0.8948 H         1 <0>         0.0607
     41 H7          0.5293   -0.3651    0.8851 H         1 <0>         0.0605
     42 H8         -1.9435   -0.1821    0.9097 H         1 <0>         0.0605
     43 H9         -1.9605   -0.1726   -0.8702 H         1 <0>         0.0608
     44 H10        -0.9024   -2.4150   -0.8923 H         1 <0>         0.0612
     45 H11        -0.8854   -2.4246    0.8875 H         1 <0>         0.0609
     46 H12        -3.3581   -2.2415    0.9121 H         1 <0>         0.0605
     47 H13        -3.3751   -2.2320   -0.8677 H         1 <0>         0.0610
     48 H14        -2.3170   -4.4744   -0.8899 H         1 <0>         0.0626
     49 H15        -2.3000   -4.4840    0.8900 H         1 <0>         0.0620
     50 H16        -4.7728   -4.3010    0.9146 H         1 <0>         0.0616
     51 H17        -4.7898   -4.2914   -0.8653 H         1 <0>         0.0628
     52 H18        -3.7316   -6.5338   -0.8874 H         1 <0>         0.0730
     53 H19        -3.7146   -6.5434    0.8924 H         1 <0>         0.0697
     54 H20        -6.1874   -6.3604    0.9170 H         1 <0>         0.0940
     55 H21        -6.2044   -6.3508   -0.8628 H         1 <0>         0.0965
     56 H22        -7.6612   -8.4349    0.0299 H         1 <0>         0.3994
     57 H23        -8.9344  -10.6239    0.0018 H         1 <0>         0.1471
     58 H24        -8.0371  -11.9904    0.7058 H         1 <0>         0.1522
     59 H25        -7.4810  -10.5878    2.5524 H         1 <0>         0.4386
     60 H26       -10.3395  -10.6301    1.8939 H         1 <0>         0.1578
     61 H27        -8.9456  -12.9054    1.9730 H         1 <0>         0.1519
     62 H28       -11.2657  -12.8564    5.3569 H         1 <0>         0.0791
     63 H29       -11.7553  -10.9413    3.9626 H         1 <0>         0.0887
     64 H30       -10.0230   -9.1017    3.7350 H         1 <0>         0.0936
     65 H31        -8.6489   -9.7849    5.5682 H         1 <0>         0.4149
     66 H32       -11.9631  -10.5508    6.3182 H         1 <0>         0.3985
     67 H33        -9.1133  -13.0195    6.3671 H         1 <0>         0.3842
     68 H34        -8.9807  -14.7024    4.7234 H         1 <0>         0.0729
     69 H35       -10.5901  -14.9145    3.9931 H         1 <0>         0.0740
     70 H36        -8.8641  -15.8445    2.6287 H         1 <0>         0.3989
     71 H37        -6.2128   -8.4165   -2.4516 H         1 <0>         0.1079
     72 H38        -4.1297   -7.5620   -3.4484 H         1 <0>         0.1204
     73 H39        -2.1483   -9.0165   -3.5957 H         1 <0>         0.1232
     74 H40        -2.2497  -11.3251   -2.7454 H         1 <0>         0.1239
     75 H41        -4.3303  -12.1769   -1.7411 H         1 <0>         0.1192
     76 H42        -7.8692   -9.4451   -2.2272 H         1 <0>         0.3754
     77 H43        -8.3116   -9.3228    1.9007 H         1 <0>         0.4242
@<TRIPOS>BOND
     1    1    2 1
     2    1   37 1
     3    1   38 1
     4    1   39 1
     5    2    3 1
     6    2   40 1
     7    2   41 1
     8    3    4 1
     9    3   42 1
    10    3   43 1
    11    4    5 1
    12    4   44 1
    13    4   45 1
    14    5    6 1
    15    5   46 1
    16    5   47 1
    17    6    7 1
    18    6   48 1
    19    6   49 1
    20    7    8 1
    21    7   50 1
    22    7   51 1
    23    8    9 1
    24    8   52 1
    25    8   53 1
    26    9   10 1
    27    9   54 1
    28    9   55 1
    29   10   11 2
    30   10   12 am
    31   12   13 1
    32   12   56 1
    33   13   14 1
    34   13   15 1
    35   13   28 1
    36   15   16 1
    37   15   57 1
    38   15   58 1
    39   16   17 1
    40   16   59 1
    41   16   77 1
    42   17   22 1
    43   17   18 1
    44   17   60 1
    45   18   19 2
    46   18   61 1
    47   19   20 1
    48   19   26 1
    49   20   21 1
    50   20   25 1
    51   20   62 1
    52   21   22 1
    53   21   24 1
    54   21   63 1
    55   22   23 1
    56   22   64 1
    57   23   65 1
    58   24   66 1
    59   25   67 1
    60   26   27 1
    61   26   68 1
    62   26   69 1
    63   27   70 1
    64   28   29 1
    65   28   30 1
    66   28   36 1
    67   30   35 ar
    68   30   31 ar
    69   31   32 ar
    70   31   71 1
    71   32   33 ar
    72   32   72 1
    73   33   34 ar
    74   33   73 1
    75   34   35 ar
    76   34   74 1
    77   35   75 1
    78   36   76 1
@<TRIPOS>MOLECULE
CHEMBL59041__19
   76    77     0     0     0
SMALL
USER_CHARGES

@<TRIPOS>ATOM
      1 C1         -0.0187    1.5258    0.0104 C.3       1 <0>        -0.1541
      2 C2          0.0021   -0.0041    0.0020 C.3       1 <0>        -0.1264
      3 C3          0.7182   -0.4975   -1.2568 C.3       1 <0>        -0.1209
      4 C4          0.7390   -2.0273   -1.2652 C.3       1 <0>        -0.1217
      5 C5          1.4551   -2.5207   -2.5240 C.3       1 <0>        -0.1200
      6 C6          1.4758   -4.0506   -2.5324 C.3       1 <0>        -0.1204
      7 C7          2.1920   -4.5440   -3.7912 C.3       1 <0>        -0.1199
      8 C8          2.2127   -6.0738   -3.7996 C.3       1 <0>        -0.1041
      9 C9          2.9289   -6.5673   -5.0584 C.3       1 <0>        -0.1405
     10 C10         2.9493   -8.0741   -5.0667 C.2       1 <0>         0.5054
     11 O1          2.4411   -8.6925   -4.1555 O.2       1 <0>        -0.5269
     12 N1          3.5323   -8.7345   -6.0867 N.am      1 <0>        -0.7179
     13 C11         3.5522  -10.1994   -6.0948 C.3       1 <0>         0.1229
     14 H1          2.6300  -10.5777   -5.6537 H         1 <0>         0.0960
     15 C12         3.6711  -10.6999   -7.5357 C.3       1 <0>         0.0460
     16 N2          2.5886  -10.1243   -8.3449 N.3       1 <0>        -0.6604
     17 C13         2.6710  -10.5839   -9.7377 C.3       1 <0>         0.1254
     18 C14         1.9920  -11.9163   -9.8629 C.2       1 <0>        -0.1376
     19 C15         1.2078  -12.2418  -10.8400 C.2       1 <0>        -0.1622
     20 C16         0.8598  -11.3285  -11.9787 C.3       1 <0>         0.1270
     21 C17         1.8586  -10.1715  -12.0507 C.3       1 <0>         0.0772
     22 C18         1.9938   -9.5595  -10.6508 C.3       1 <0>         0.1350
     23 O2          0.6981   -9.2419  -10.1386 O.3       1 <0>        -0.5347
     24 O3          1.3816   -9.1811  -12.9638 O.3       1 <0>        -0.5507
     25 O4         -0.4560  -10.8067  -11.7823 O.3       1 <0>        -0.5321
     26 C19         0.6067  -13.6237  -10.8334 C.3       1 <0>         0.1091
     27 O5          1.0554  -14.3328   -9.6767 O.3       1 <0>        -0.5681
     28 C20         4.7485  -10.6977   -5.2814 C.3       1 <0>         0.1403
     29 H2          5.6706  -10.3194   -5.7225 H         1 <0>         0.0632
     30 C21         4.7689  -12.2045   -5.2897 C.ar      1 <0>        -0.0841
     31 C22         3.9359  -12.9117   -4.4431 C.ar      1 <0>        -0.0878
     32 C23         3.9546  -14.2939   -4.4506 C.ar      1 <0>        -0.1219
     33 C24         4.8060  -14.9689   -5.3052 C.ar      1 <0>        -0.1149
     34 C25         5.6384  -14.2617   -6.1526 C.ar      1 <0>        -0.1216
     35 C26         5.6166  -12.8795   -6.1480 C.ar      1 <0>        -0.1099
     36 O6          4.6374  -10.2302   -3.9356 O.3       1 <0>        -0.5435
     37 H3          1.0039    1.9031    0.0027 H         1 <0>         0.0531
     38 H4         -0.5459    1.8868   -0.8726 H         1 <0>         0.0532
     39 H5         -0.5289    1.8773    0.9072 H         1 <0>         0.0532
     40 H6          0.5293   -0.3651    0.8851 H         1 <0>         0.0603
     41 H7         -1.0205   -0.3814    0.0098 H         1 <0>         0.0603
     42 H8          0.1910   -0.1364   -2.1398 H         1 <0>         0.0604
     43 H9          1.7408   -0.1202   -1.2645 H         1 <0>         0.0603
     44 H10         1.2661   -2.3884   -0.3821 H         1 <0>         0.0608
     45 H11        -0.2836   -2.4046   -1.2575 H         1 <0>         0.0608
     46 H12         0.9279   -2.1597   -3.4071 H         1 <0>         0.0604
     47 H13         2.4777   -2.1435   -2.5317 H         1 <0>         0.0603
     48 H14         2.0030   -4.4117   -1.6494 H         1 <0>         0.0619
     49 H15         0.4533   -4.4279   -2.5247 H         1 <0>         0.0619
     50 H16         1.6648   -4.1829   -4.6743 H         1 <0>         0.0617
     51 H17         3.2146   -4.1667   -3.7990 H         1 <0>         0.0613
     52 H18         2.7399   -6.4349   -2.9166 H         1 <0>         0.0693
     53 H19         1.1901   -6.4511   -3.7919 H         1 <0>         0.0693
     54 H20         2.4017   -6.2062   -5.9415 H         1 <0>         0.0944
     55 H21         3.9515   -6.1900   -5.0662 H         1 <0>         0.0913
     56 H22         3.9388   -8.2400   -6.8155 H         1 <0>         0.4055
     57 H23         4.6335  -10.3962   -7.9476 H         1 <0>         0.0788
     58 H24         3.5966  -11.7872   -7.5499 H         1 <0>         0.0546
     59 H25         1.6865  -10.3378   -7.9464 H         1 <0>         0.3559
     60 H26         3.7180  -10.6859  -10.0231 H         1 <0>         0.0981
     61 H27         2.1689  -12.6494   -9.0898 H         1 <0>         0.1252
     62 H28         0.8882  -11.8890  -12.9131 H         1 <0>         0.0571
     63 H29         2.8276  -10.5441  -12.3829 H         1 <0>         0.0748
     64 H30         2.6021   -8.6564  -10.7027 H         1 <0>         0.0675
     65 H31         0.2123   -8.5966  -10.6703 H         1 <0>         0.3822
     66 H32         1.2576   -9.5055  -13.8663 H         1 <0>         0.3820
     67 H33        -1.1449  -11.4838  -11.7374 H         1 <0>         0.3725
     68 H34        -0.4804  -13.5469  -10.8134 H         1 <0>         0.0551
     69 H35         0.9167  -14.1591  -11.7308 H         1 <0>         0.0556
     70 H36         0.7071  -15.2322   -9.6070 H         1 <0>         0.3846
     71 H37         3.2707  -12.3843   -3.7754 H         1 <0>         0.1279
     72 H38         3.3043  -14.8464   -3.7887 H         1 <0>         0.1227
     73 H39         4.8212  -16.0488   -5.3107 H         1 <0>         0.1216
     74 H40         6.3038  -14.7891   -6.8200 H         1 <0>         0.1228
     75 H41         6.2642  -12.3271   -6.8126 H         1 <0>         0.1205
     76 H42         4.6184   -9.2668   -3.8542 H         1 <0>         0.3756
@<TRIPOS>BOND
     1    1    2 1
     2    1   37 1
     3    1   38 1
     4    1   39 1
     5    2    3 1
     6    2   40 1
     7    2   41 1
     8    3    4 1
     9    3   42 1
    10    3   43 1
    11    4    5 1
    12    4   44 1
    13    4   45 1
    14    5    6 1
    15    5   46 1
    16    5   47 1
    17    6    7 1
    18    6   48 1
    19    6   49 1
    20    7    8 1
    21    7   50 1
    22    7   51 1
    23    8    9 1
    24    8   52 1
    25    8   53 1
    26    9   10 1
    27    9   54 1
    28    9   55 1
    29   10   11 2
    30   10   12 am
    31   12   13 1
    32   12   56 1
    33   13   14 1
    34   13   15 1
    35   13   28 1
    36   15   16 1
    37   15   57 1
    38   15   58 1
    39   16   17 1
    40   16   59 1
    41   17   22 1
    42   17   18 1
    43   17   60 1
    44   18   19 2
    45   18   61 1
    46   19   20 1
    47   19   26 1
    48   20   21 1
    49   20   25 1
    50   20   62 1
    51   21   22 1
    52   21   24 1
    53   21   63 1
    54   22   23 1
    55   22   64 1
    56   23   65 1
    57   24   66 1
    58   25   67 1
    59   26   27 1
    60   26   68 1
    61   26   69 1
    62   27   70 1
    63   28   29 1
    64   28   30 1
    65   28   36 1
    66   30   35 ar
    67   30   31 ar
    68   31   32 ar
    69   31   71 1
    70   32   33 ar
    71   32   72 1
    72   33   34 ar
    73   33   73 1
    74   34   35 ar
    75   34   74 1
    76   35   75 1
    77   36   76 1
@<TRIPOS>MOLECULE
CHEMBL59041__20
   77    78     0     0     0
SMALL
USER_CHARGES

@<TRIPOS>ATOM
      1 C1         -0.0187    1.5258    0.0104 C.3       1 <0>        -0.1550
      2 C2          0.0021   -0.0041    0.0020 C.3       1 <0>        -0.1264
      3 C3         -1.4333   -0.5336    0.0129 C.3       1 <0>        -0.1211
      4 C4         -1.4126   -2.0635    0.0045 C.3       1 <0>        -0.1218
      5 C5         -2.8479   -2.5931    0.0153 C.3       1 <0>        -0.1201
      6 C6         -2.8272   -4.1229    0.0069 C.3       1 <0>        -0.1202
      7 C7         -4.2626   -4.6525    0.0178 C.3       1 <0>        -0.1201
      8 C8         -4.2418   -6.1823    0.0094 C.3       1 <0>        -0.1049
      9 C9         -5.6772   -6.7119    0.0202 C.3       1 <0>        -0.1406
     10 C10        -5.6568   -8.2187    0.0119 C.2       1 <0>         0.5134
     11 O1         -4.5984   -8.8108   -0.0014 O.2       1 <0>        -0.4860
     12 N1         -6.8147   -8.9084    0.0193 N.am      1 <0>        -0.7626
     13 C11        -6.7948  -10.3733    0.0112 C.3       1 <0>         0.0935
     14 H1         -5.9426  -10.7283    0.5907 H         1 <0>         0.1234
     15 C12        -8.0892  -10.9043    0.6304 C.3       1 <0>        -0.0143
     16 N2         -8.2633  -10.3282    1.9705 N.4       1 <0>        -0.5029
     17 C13        -9.5062  -10.8381    2.5650 C.3       1 <0>         0.0742
     18 C14        -9.3902  -12.3208    2.7649 C.2       1 <0>        -0.1971
     19 C15        -9.1668  -12.8831    3.9092 C.2       1 <0>        -0.0731
     20 C16        -9.0031  -12.1314    5.1977 C.3       1 <0>         0.1008
     21 C17        -8.7130  -10.6559    4.9139 C.3       1 <0>         0.0789
     22 C18        -9.7493  -10.1428    3.9063 C.3       1 <0>         0.1023
     23 O2        -11.0649  -10.4474    4.3736 O.3       1 <0>        -0.5365
     24 O3         -8.8094   -9.9056    6.1262 O.3       1 <0>        -0.5489
     25 O4         -7.9186  -12.6932    5.9394 O.3       1 <0>        -0.5554
     26 C19        -9.0654  -14.3861    3.9502 C.3       1 <0>         0.0921
     27 O5         -9.2484  -14.9120    2.6342 O.3       1 <0>        -0.5705
     28 C20        -6.6759  -10.8738   -1.4297 C.3       1 <0>         0.1468
     29 H2         -6.6611  -11.9637   -1.4357 H         1 <0>         0.1251
     30 C21        -5.4009  -10.3508   -2.0396 C.ar      1 <0>        -0.1156
     31 C22        -5.3437   -9.0544   -2.5160 C.ar      1 <0>        -0.1050
     32 C23        -4.1742   -8.5746   -3.0755 C.ar      1 <0>        -0.1086
     33 C24        -3.0618   -9.3911   -3.1580 C.ar      1 <0>        -0.1030
     34 C25        -3.1187  -10.6872   -2.6807 C.ar      1 <0>        -0.1091
     35 C26        -4.2869  -11.1655   -2.1174 C.ar      1 <0>        -0.0977
     36 O6         -7.7932  -10.4084   -2.1893 O.3       1 <0>        -0.5441
     37 H3          1.0039    1.9031    0.0027 H         1 <0>         0.0549
     38 H4         -0.5459    1.8868   -0.8726 H         1 <0>         0.0537
     39 H5         -0.5289    1.8773    0.9072 H         1 <0>         0.0535
     40 H6          0.5123   -0.3556   -0.8948 H         1 <0>         0.0607
     41 H7          0.5293   -0.3651    0.8851 H         1 <0>         0.0604
     42 H8         -1.9435   -0.1821    0.9097 H         1 <0>         0.0605
     43 H9         -1.9605   -0.1726   -0.8702 H         1 <0>         0.0609
     44 H10        -0.9024   -2.4150   -0.8923 H         1 <0>         0.0613
     45 H11        -0.8854   -2.4246    0.8875 H         1 <0>         0.0608
     46 H12        -3.3581   -2.2415    0.9121 H         1 <0>         0.0605
     47 H13        -3.3751   -2.2320   -0.8677 H         1 <0>         0.0612
     48 H14        -2.3170   -4.4744   -0.8899 H         1 <0>         0.0627
     49 H15        -2.3000   -4.4840    0.8900 H         1 <0>         0.0618
     50 H16        -4.7728   -4.3010    0.9146 H         1 <0>         0.0616
     51 H17        -4.7898   -4.2914   -0.8653 H         1 <0>         0.0631
     52 H18        -3.7316   -6.5338   -0.8874 H         1 <0>         0.0733
     53 H19        -3.7146   -6.5434    0.8924 H         1 <0>         0.0694
     54 H20        -6.1874   -6.3604    0.9170 H         1 <0>         0.0940
     55 H21        -6.2044   -6.3508   -0.8628 H         1 <0>         0.0973
     56 H22        -7.6612   -8.4349    0.0299 H         1 <0>         0.4002
     57 H23        -8.9344  -10.6239    0.0018 H         1 <0>         0.1508
     58 H24        -8.0371  -11.9904    0.7058 H         1 <0>         0.1549
     59 H25        -7.4810  -10.5878    2.5524 H         1 <0>         0.4257
     60 H26       -10.3395  -10.6301    1.8939 H         1 <0>         0.1655
     61 H27        -9.5003  -12.9585    1.9002 H         1 <0>         0.1576
     62 H28        -9.9191  -12.2134    5.7828 H         1 <0>         0.1018
     63 H29        -7.7121  -10.5534    4.4945 H         1 <0>         0.0669
     64 H30        -9.6405   -9.0650    3.7853 H         1 <0>         0.0958
     65 H31       -11.2858  -10.0378    5.2213 H         1 <0>         0.4107
     66 H32        -8.1919  -10.1890    6.8143 H         1 <0>         0.4058
     67 H33        -8.0379  -13.6259    6.1651 H         1 <0>         0.3945
     68 H34        -8.0824  -14.6739    4.3230 H         1 <0>         0.0772
     69 H35        -9.8354  -14.7844    4.6109 H         1 <0>         0.0762
     70 H36        -9.1957  -15.8763    2.5851 H         1 <0>         0.3997
     71 H37        -6.2128   -8.4165   -2.4516 H         1 <0>         0.1081
     72 H38        -4.1297   -7.5620   -3.4484 H         1 <0>         0.1206
     73 H39        -2.1483   -9.0165   -3.5957 H         1 <0>         0.1233
     74 H40        -2.2497  -11.3251   -2.7454 H         1 <0>         0.1240
     75 H41        -4.3303  -12.1769   -1.7411 H         1 <0>         0.1192
     76 H42        -7.8692   -9.4451   -2.2272 H         1 <0>         0.3757
     77 H43        -8.3116   -9.3228    1.9007 H         1 <0>         0.4244
@<TRIPOS>BOND
     1    1    2 1
     2    1   37 1
     3    1   38 1
     4    1   39 1
     5    2    3 1
     6    2   40 1
     7    2   41 1
     8    3    4 1
     9    3   42 1
    10    3   43 1
    11    4    5 1
    12    4   44 1
    13    4   45 1
    14    5    6 1
    15    5   46 1
    16    5   47 1
    17    6    7 1
    18    6   48 1
    19    6   49 1
    20    7    8 1
    21    7   50 1
    22    7   51 1
    23    8    9 1
    24    8   52 1
    25    8   53 1
    26    9   10 1
    27    9   54 1
    28    9   55 1
    29   10   11 2
    30   10   12 am
    31   12   13 1
    32   12   56 1
    33   13   14 1
    34   13   15 1
    35   13   28 1
    36   15   16 1
    37   15   57 1
    38   15   58 1
    39   16   17 1
    40   16   59 1
    41   16   77 1
    42   17   22 1
    43   17   18 1
    44   17   60 1
    45   18   19 2
    46   18   61 1
    47   19   20 1
    48   19   26 1
    49   20   21 1
    50   20   25 1
    51   20   62 1
    52   21   22 1
    53   21   24 1
    54   21   63 1
    55   22   23 1
    56   22   64 1
    57   23   65 1
    58   24   66 1
    59   25   67 1
    60   26   27 1
    61   26   68 1
    62   26   69 1
    63   27   70 1
    64   28   29 1
    65   28   30 1
    66   28   36 1
    67   30   35 ar
    68   30   31 ar
    69   31   32 ar
    70   31   71 1
    71   32   33 ar
    72   32   72 1
    73   33   34 ar
    74   33   73 1
    75   34   35 ar
    76   34   74 1
    77   35   75 1
    78   36   76 1
@<TRIPOS>MOLECULE
CHEMBL59041__21
   76    77     0     0     0
SMALL
USER_CHARGES

@<TRIPOS>ATOM
      1 C1         -0.0187    1.5258    0.0104 C.3       1 <0>        -0.1542
      2 C2          0.0021   -0.0041    0.0020 C.3       1 <0>        -0.1264
      3 C3          0.7182   -0.4975   -1.2568 C.3       1 <0>        -0.1210
      4 C4          0.7390   -2.0273   -1.2652 C.3       1 <0>        -0.1217
      5 C5          1.4551   -2.5207   -2.5240 C.3       1 <0>        -0.1200
      6 C6          1.4758   -4.0506   -2.5324 C.3       1 <0>        -0.1204
      7 C7          2.1920   -4.5440   -3.7912 C.3       1 <0>        -0.1200
      8 C8          2.2127   -6.0738   -3.7996 C.3       1 <0>        -0.1042
      9 C9          2.9289   -6.5673   -5.0584 C.3       1 <0>        -0.1409
     10 C10         2.9493   -8.0741   -5.0667 C.2       1 <0>         0.5046
     11 O1          2.4411   -8.6925   -4.1555 O.2       1 <0>        -0.5257
     12 N1          3.5323   -8.7345   -6.0867 N.am      1 <0>        -0.7198
     13 C11         3.5522  -10.1994   -6.0948 C.3       1 <0>         0.1215
     14 H1          2.6300  -10.5777   -5.6537 H         1 <0>         0.0966
     15 C12         3.6711  -10.6999   -7.5357 C.3       1 <0>         0.0505
     16 N2          2.5886  -10.1243   -8.3449 N.3       1 <0>        -0.6693
     17 C13         2.6710  -10.5839   -9.7377 C.3       1 <0>         0.1245
     18 C14         1.9920  -11.9163   -9.8629 C.2       1 <0>        -0.1497
     19 C15         0.8138  -12.0850  -10.3719 C.2       1 <0>        -0.1488
     20 C16        -0.0334  -10.9730  -10.9176 C.3       1 <0>         0.1184
     21 C17         0.4799   -9.6228  -10.4126 C.3       1 <0>         0.0875
     22 C18         1.9938   -9.5595  -10.6508 C.3       1 <0>         0.1295
     23 O2          2.2784   -9.8708  -12.0161 O.3       1 <0>        -0.5596
     24 O3         -0.1634   -8.5663  -11.1281 O.3       1 <0>        -0.5620
     25 O4         -1.3853  -11.1550  -10.4920 O.3       1 <0>        -0.5633
     26 C19         0.2587  -13.4852  -10.4199 C.3       1 <0>         0.1056
     27 O5          1.2080  -14.3935   -9.8580 O.3       1 <0>        -0.5665
     28 C20         4.7485  -10.6977   -5.2814 C.3       1 <0>         0.1408
     29 H2          5.6706  -10.3194   -5.7225 H         1 <0>         0.0642
     30 C21         4.7689  -12.2045   -5.2897 C.ar      1 <0>        -0.0855
     31 C22         3.9359  -12.9117   -4.4431 C.ar      1 <0>        -0.0881
     32 C23         3.9546  -14.2939   -4.4506 C.ar      1 <0>        -0.1223
     33 C24         4.8060  -14.9689   -5.3052 C.ar      1 <0>        -0.1143
     34 C25         5.6384  -14.2617   -6.1526 C.ar      1 <0>        -0.1209
     35 C26         5.6166  -12.8795   -6.1480 C.ar      1 <0>        -0.1095
     36 O6          4.6374  -10.2302   -3.9356 O.3       1 <0>        -0.5430
     37 H3          1.0039    1.9031    0.0027 H         1 <0>         0.0532
     38 H4         -0.5459    1.8868   -0.8726 H         1 <0>         0.0532
     39 H5         -0.5289    1.8773    0.9072 H         1 <0>         0.0533
     40 H6          0.5293   -0.3651    0.8851 H         1 <0>         0.0603
     41 H7         -1.0205   -0.3814    0.0098 H         1 <0>         0.0603
     42 H8          0.1910   -0.1364   -2.1398 H         1 <0>         0.0604
     43 H9          1.7408   -0.1202   -1.2645 H         1 <0>         0.0604
     44 H10         1.2661   -2.3884   -0.3821 H         1 <0>         0.0608
     45 H11        -0.2836   -2.4046   -1.2575 H         1 <0>         0.0607
     46 H12         0.9279   -2.1597   -3.4071 H         1 <0>         0.0604
     47 H13         2.4777   -2.1435   -2.5317 H         1 <0>         0.0604
     48 H14         2.0030   -4.4117   -1.6494 H         1 <0>         0.0620
     49 H15         0.4533   -4.4279   -2.5247 H         1 <0>         0.0617
     50 H16         1.6648   -4.1829   -4.6743 H         1 <0>         0.0616
     51 H17         3.2146   -4.1667   -3.7990 H         1 <0>         0.0616
     52 H18         2.7399   -6.4349   -2.9166 H         1 <0>         0.0698
     53 H19         1.1901   -6.4511   -3.7919 H         1 <0>         0.0691
     54 H20         2.4017   -6.2062   -5.9415 H         1 <0>         0.0941
     55 H21         3.9515   -6.1900   -5.0662 H         1 <0>         0.0922
     56 H22         3.9388   -8.2400   -6.8155 H         1 <0>         0.4060
     57 H23         4.6335  -10.3962   -7.9476 H         1 <0>         0.0832
     58 H24         3.5966  -11.7872   -7.5499 H         1 <0>         0.0594
     59 H25         1.6865  -10.3378   -7.9464 H         1 <0>         0.3475
     60 H26         3.7180  -10.6859  -10.0231 H         1 <0>         0.1030
     61 H27         2.5193  -12.7888   -9.5064 H         1 <0>         0.1272
     62 H28         0.0058  -10.9901  -12.0067 H         1 <0>         0.0796
     63 H29         0.2723   -9.5272   -9.3469 H         1 <0>         0.0757
     64 H30         2.3603   -8.5602  -10.4155 H         1 <0>         0.0829
     65 H31         1.8789   -9.2598  -12.6503 H         1 <0>         0.3882
     66 H32        -1.1258   -8.5570  -11.0345 H         1 <0>         0.3893
     67 H33        -1.7814  -11.9871  -10.7852 H         1 <0>         0.3811
     68 H34        -0.6681  -13.5284   -9.8478 H         1 <0>         0.0597
     69 H35         0.0598  -13.7619  -11.4552 H         1 <0>         0.0576
     70 H36         0.9167  -15.3156   -9.8560 H         1 <0>         0.3851
     71 H37         3.2707  -12.3843   -3.7754 H         1 <0>         0.1276
     72 H38         3.3043  -14.8464   -3.7887 H         1 <0>         0.1226
     73 H39         4.8212  -16.0488   -5.3107 H         1 <0>         0.1219
     74 H40         6.3038  -14.7891   -6.8200 H         1 <0>         0.1234
     75 H41         6.2642  -12.3271   -6.8126 H         1 <0>         0.1211
     76 H42         4.6184   -9.2668   -3.8542 H         1 <0>         0.3755
@<TRIPOS>BOND
     1    1    2 1
     2    1   37 1
     3    1   38 1
     4    1   39 1
     5    2    3 1
     6    2   40 1
     7    2   41 1
     8    3    4 1
     9    3   42 1
    10    3   43 1
    11    4    5 1
    12    4   44 1
    13    4   45 1
    14    5    6 1
    15    5   46 1
    16    5   47 1
    17    6    7 1
    18    6   48 1
    19    6   49 1
    20    7    8 1
    21    7   50 1
    22    7   51 1
    23    8    9 1
    24    8   52 1
    25    8   53 1
    26    9   10 1
    27    9   54 1
    28    9   55 1
    29   10   11 2
    30   10   12 am
    31   12   13 1
    32   12   56 1
    33   13   14 1
    34   13   15 1
    35   13   28 1
    36   15   16 1
    37   15   57 1
    38   15   58 1
    39   16   17 1
    40   16   59 1
    41   17   22 1
    42   17   18 1
    43   17   60 1
    44   18   19 2
    45   18   61 1
    46   19   20 1
    47   19   26 1
    48   20   21 1
    49   20   25 1
    50   20   62 1
    51   21   22 1
    52   21   24 1
    53   21   63 1
    54   22   23 1
    55   22   64 1
    56   23   65 1
    57   24   66 1
    58   25   67 1
    59   26   27 1
    60   26   68 1
    61   26   69 1
    62   27   70 1
    63   28   29 1
    64   28   30 1
    65   28   36 1
    66   30   35 ar
    67   30   31 ar
    68   31   32 ar
    69   31   71 1
    70   32   33 ar
    71   32   72 1
    72   33   34 ar
    73   33   73 1
    74   34   35 ar
    75   34   74 1
    76   35   75 1
    77   36   76 1
@<TRIPOS>MOLECULE
CHEMBL59041__22
   77    78     0     0     0
SMALL
USER_CHARGES

@<TRIPOS>ATOM
      1 C1         -0.0187    1.5258    0.0104 C.3       1 <0>        -0.1550
      2 C2          0.0021   -0.0041    0.0020 C.3       1 <0>        -0.1264
      3 C3         -1.4333   -0.5336    0.0129 C.3       1 <0>        -0.1210
      4 C4         -1.4126   -2.0635    0.0045 C.3       1 <0>        -0.1218
      5 C5         -2.8479   -2.5931    0.0153 C.3       1 <0>        -0.1200
      6 C6         -2.8272   -4.1229    0.0069 C.3       1 <0>        -0.1202
      7 C7         -4.2626   -4.6525    0.0178 C.3       1 <0>        -0.1199
      8 C8         -4.2418   -6.1823    0.0094 C.3       1 <0>        -0.1048
      9 C9         -5.6772   -6.7119    0.0202 C.3       1 <0>        -0.1403
     10 C10        -5.6568   -8.2187    0.0119 C.2       1 <0>         0.5139
     11 O1         -4.5984   -8.8108   -0.0014 O.2       1 <0>        -0.4870
     12 N1         -6.8147   -8.9084    0.0193 N.am      1 <0>        -0.7609
     13 C11        -6.7948  -10.3733    0.0112 C.3       1 <0>         0.0953
     14 H1         -5.9426  -10.7283    0.5907 H         1 <0>         0.1231
     15 C12        -8.0892  -10.9043    0.6304 C.3       1 <0>        -0.0189
     16 N2         -8.2633  -10.3282    1.9705 N.4       1 <0>        -0.4984
     17 C13        -9.5062  -10.8381    2.5650 C.3       1 <0>         0.0858
     18 C14        -9.3902  -12.3208    2.7649 C.2       1 <0>        -0.1777
     19 C15        -9.7903  -12.9429    3.8272 C.2       1 <0>        -0.0858
     20 C16       -10.4172  -12.2671    5.0114 C.3       1 <0>         0.1095
     21 C17       -10.8951  -10.8653    4.6263 C.3       1 <0>         0.0863
     22 C18        -9.7493  -10.1428    3.9063 C.3       1 <0>         0.0975
     23 O2         -8.5645  -10.2075    4.7026 O.3       1 <0>        -0.5473
     24 O3        -12.0231  -10.9650    3.7545 O.3       1 <0>        -0.5520
     25 O4         -9.4556  -12.1672    6.0637 O.3       1 <0>        -0.5394
     26 C19        -9.6161  -14.4389    3.8778 C.3       1 <0>         0.0973
     27 O5         -9.0069  -14.8888    2.6659 O.3       1 <0>        -0.5741
     28 C20        -6.6759  -10.8738   -1.4297 C.3       1 <0>         0.1460
     29 H2         -6.6611  -11.9637   -1.4357 H         1 <0>         0.1244
     30 C21        -5.4009  -10.3508   -2.0396 C.ar      1 <0>        -0.1146
     31 C22        -5.3437   -9.0544   -2.5160 C.ar      1 <0>        -0.1049
     32 C23        -4.1742   -8.5746   -3.0755 C.ar      1 <0>        -0.1088
     33 C24        -3.0618   -9.3911   -3.1580 C.ar      1 <0>        -0.1035
     34 C25        -3.1187  -10.6872   -2.6807 C.ar      1 <0>        -0.1092
     35 C26        -4.2869  -11.1655   -2.1174 C.ar      1 <0>        -0.0979
     36 O6         -7.7932  -10.4084   -2.1893 O.3       1 <0>        -0.5447
     37 H3          1.0039    1.9031    0.0027 H         1 <0>         0.0548
     38 H4         -0.5459    1.8868   -0.8726 H         1 <0>         0.0537
     39 H5         -0.5289    1.8773    0.9072 H         1 <0>         0.0534
     40 H6          0.5123   -0.3556   -0.8948 H         1 <0>         0.0607
     41 H7          0.5293   -0.3651    0.8851 H         1 <0>         0.0604
     42 H8         -1.9435   -0.1821    0.9097 H         1 <0>         0.0605
     43 H9         -1.9605   -0.1726   -0.8702 H         1 <0>         0.0608
     44 H10        -0.9024   -2.4150   -0.8923 H         1 <0>         0.0613
     45 H11        -0.8854   -2.4246    0.8875 H         1 <0>         0.0609
     46 H12        -3.3581   -2.2415    0.9121 H         1 <0>         0.0604
     47 H13        -3.3751   -2.2320   -0.8677 H         1 <0>         0.0611
     48 H14        -2.3170   -4.4744   -0.8899 H         1 <0>         0.0626
     49 H15        -2.3000   -4.4840    0.8900 H         1 <0>         0.0619
     50 H16        -4.7728   -4.3010    0.9146 H         1 <0>         0.0615
     51 H17        -4.7898   -4.2914   -0.8653 H         1 <0>         0.0628
     52 H18        -3.7316   -6.5338   -0.8874 H         1 <0>         0.0730
     53 H19        -3.7146   -6.5434    0.8924 H         1 <0>         0.0696
     54 H20        -6.1874   -6.3604    0.9170 H         1 <0>         0.0937
     55 H21        -6.2044   -6.3508   -0.8628 H         1 <0>         0.0965
     56 H22        -7.6612   -8.4349    0.0299 H         1 <0>         0.3996
     57 H23        -8.9344  -10.6239    0.0018 H         1 <0>         0.1467
     58 H24        -8.0371  -11.9904    0.7058 H         1 <0>         0.1513
     59 H25        -7.4810  -10.5878    2.5524 H         1 <0>         0.4361
     60 H26       -10.3395  -10.6301    1.8939 H         1 <0>         0.1622
     61 H27        -8.9456  -12.9054    1.9730 H         1 <0>         0.1485
     62 H28       -11.2669  -12.8565    5.3558 H         1 <0>         0.0792
     63 H29       -11.1701  -10.3123    5.5244 H         1 <0>         0.0944
     64 H30       -10.0230   -9.1017    3.7350 H         1 <0>         0.0942
     65 H31        -8.6489   -9.7849    5.5682 H         1 <0>         0.4104
     66 H32       -12.7796  -11.4264    4.1415 H         1 <0>         0.4003
     67 H33        -9.1152  -13.0197    6.3676 H         1 <0>         0.3901
     68 H34        -8.9807  -14.7024    4.7234 H         1 <0>         0.0704
     69 H35       -10.5901  -14.9145    3.9931 H         1 <0>         0.0721
     70 H36        -8.8641  -15.8445    2.6287 H         1 <0>         0.3979
     71 H37        -6.2128   -8.4165   -2.4516 H         1 <0>         0.1079
     72 H38        -4.1297   -7.5620   -3.4484 H         1 <0>         0.1203
     73 H39        -2.1483   -9.0165   -3.5957 H         1 <0>         0.1230
     74 H40        -2.2497  -11.3251   -2.7454 H         1 <0>         0.1238
     75 H41        -4.3303  -12.1769   -1.7411 H         1 <0>         0.1191
     76 H42        -7.8692   -9.4451   -2.2272 H         1 <0>         0.3753
     77 H43        -8.3116   -9.3228    1.9007 H         1 <0>         0.4229
@<TRIPOS>BOND
     1    1    2 1
     2    1   37 1
     3    1   38 1
     4    1   39 1
     5    2    3 1
     6    2   40 1
     7    2   41 1
     8    3    4 1
     9    3   42 1
    10    3   43 1
    11    4    5 1
    12    4   44 1
    13    4   45 1
    14    5    6 1
    15    5   46 1
    16    5   47 1
    17    6    7 1
    18    6   48 1
    19    6   49 1
    20    7    8 1
    21    7   50 1
    22    7   51 1
    23    8    9 1
    24    8   52 1
    25    8   53 1
    26    9   10 1
    27    9   54 1
    28    9   55 1
    29   10   11 2
    30   10   12 am
    31   12   13 1
    32   12   56 1
    33   13   14 1
    34   13   15 1
    35   13   28 1
    36   15   16 1
    37   15   57 1
    38   15   58 1
    39   16   17 1
    40   16   59 1
    41   16   77 1
    42   17   22 1
    43   17   18 1
    44   17   60 1
    45   18   19 2
    46   18   61 1
    47   19   20 1
    48   19   26 1
    49   20   21 1
    50   20   25 1
    51   20   62 1
    52   21   22 1
    53   21   24 1
    54   21   63 1
    55   22   23 1
    56   22   64 1
    57   23   65 1
    58   24   66 1
    59   25   67 1
    60   26   27 1
    61   26   68 1
    62   26   69 1
    63   27   70 1
    64   28   29 1
    65   28   30 1
    66   28   36 1
    67   30   35 ar
    68   30   31 ar
    69   31   32 ar
    70   31   71 1
    71   32   33 ar
    72   32   72 1
    73   33   34 ar
    74   33   73 1
    75   34   35 ar
    76   34   74 1
    77   35   75 1
    78   36   76 1
@<TRIPOS>MOLECULE
CHEMBL59041__23
   76    77     0     0     0
SMALL
USER_CHARGES

@<TRIPOS>ATOM
      1 C1         -0.0187    1.5258    0.0104 C.3       1 <0>        -0.1541
      2 C2          0.0021   -0.0041    0.0020 C.3       1 <0>        -0.1264
      3 C3          0.7182   -0.4975   -1.2568 C.3       1 <0>        -0.1209
      4 C4          0.7390   -2.0273   -1.2652 C.3       1 <0>        -0.1217
      5 C5          1.4551   -2.5207   -2.5240 C.3       1 <0>        -0.1199
      6 C6          1.4758   -4.0506   -2.5324 C.3       1 <0>        -0.1205
      7 C7          2.1920   -4.5440   -3.7912 C.3       1 <0>        -0.1198
      8 C8          2.2127   -6.0738   -3.7996 C.3       1 <0>        -0.1041
      9 C9          2.9289   -6.5673   -5.0584 C.3       1 <0>        -0.1404
     10 C10         2.9493   -8.0741   -5.0667 C.2       1 <0>         0.5050
     11 O1          2.4411   -8.6925   -4.1555 O.2       1 <0>        -0.5273
     12 N1          3.5323   -8.7345   -6.0867 N.am      1 <0>        -0.7174
     13 C11         3.5522  -10.1994   -6.0948 C.3       1 <0>         0.1231
     14 H1          2.6300  -10.5777   -5.6537 H         1 <0>         0.0955
     15 C12         3.6711  -10.6999   -7.5357 C.3       1 <0>         0.0468
     16 N2          2.5886  -10.1243   -8.3449 N.3       1 <0>        -0.6645
     17 C13         2.6710  -10.5839   -9.7377 C.3       1 <0>         0.1312
     18 C14         1.9920  -11.9163   -9.8629 C.2       1 <0>        -0.1242
     19 C15         1.2078  -12.2418  -10.8400 C.2       1 <0>        -0.1662
     20 C16         0.8605  -11.3288  -11.9792 C.3       1 <0>         0.1280
     21 C17         1.8595  -10.1718  -12.0509 C.3       1 <0>         0.0777
     22 C18         1.9938   -9.5595  -10.6508 C.3       1 <0>         0.1329
     23 O2          0.6981   -9.2419  -10.1386 O.3       1 <0>        -0.5290
     24 O3          3.1301  -10.6605  -12.4853 O.3       1 <0>        -0.5476
     25 O4         -0.4554  -10.8070  -11.7838 O.3       1 <0>        -0.5433
     26 C19         0.6067  -13.6237  -10.8334 C.3       1 <0>         0.1099
     27 O5          1.0554  -14.3328   -9.6767 O.3       1 <0>        -0.5677
     28 C20         4.7485  -10.6977   -5.2814 C.3       1 <0>         0.1402
     29 H2          5.6706  -10.3194   -5.7225 H         1 <0>         0.0632
     30 C21         4.7689  -12.2045   -5.2897 C.ar      1 <0>        -0.0838
     31 C22         3.9359  -12.9117   -4.4431 C.ar      1 <0>        -0.0881
     32 C23         3.9546  -14.2939   -4.4506 C.ar      1 <0>        -0.1223
     33 C24         4.8060  -14.9689   -5.3052 C.ar      1 <0>        -0.1150
     34 C25         5.6384  -14.2617   -6.1526 C.ar      1 <0>        -0.1214
     35 C26         5.6166  -12.8795   -6.1480 C.ar      1 <0>        -0.1093
     36 O6          4.6374  -10.2302   -3.9356 O.3       1 <0>        -0.5437
     37 H3          1.0039    1.9031    0.0027 H         1 <0>         0.0532
     38 H4         -0.5459    1.8868   -0.8726 H         1 <0>         0.0532
     39 H5         -0.5289    1.8773    0.9072 H         1 <0>         0.0532
     40 H6          0.5293   -0.3651    0.8851 H         1 <0>         0.0603
     41 H7         -1.0205   -0.3814    0.0098 H         1 <0>         0.0603
     42 H8          0.1910   -0.1364   -2.1398 H         1 <0>         0.0603
     43 H9          1.7408   -0.1202   -1.2645 H         1 <0>         0.0603
     44 H10         1.2661   -2.3884   -0.3821 H         1 <0>         0.0608
     45 H11        -0.2836   -2.4046   -1.2575 H         1 <0>         0.0608
     46 H12         0.9279   -2.1597   -3.4071 H         1 <0>         0.0603
     47 H13         2.4777   -2.1435   -2.5317 H         1 <0>         0.0603
     48 H14         2.0030   -4.4117   -1.6494 H         1 <0>         0.0619
     49 H15         0.4533   -4.4279   -2.5247 H         1 <0>         0.0618
     50 H16         1.6648   -4.1829   -4.6743 H         1 <0>         0.0615
     51 H17         3.2146   -4.1667   -3.7990 H         1 <0>         0.0613
     52 H18         2.7399   -6.4349   -2.9166 H         1 <0>         0.0694
     53 H19         1.1901   -6.4511   -3.7919 H         1 <0>         0.0692
     54 H20         2.4017   -6.2062   -5.9415 H         1 <0>         0.0940
     55 H21         3.9515   -6.1900   -5.0662 H         1 <0>         0.0912
     56 H22         3.9388   -8.2400   -6.8155 H         1 <0>         0.4054
     57 H23         4.6335  -10.3962   -7.9476 H         1 <0>         0.0784
     58 H24         3.5966  -11.7872   -7.5499 H         1 <0>         0.0536
     59 H25         1.6865  -10.3378   -7.9464 H         1 <0>         0.3527
     60 H26         3.7180  -10.6859  -10.0231 H         1 <0>         0.1039
     61 H27         2.1689  -12.6494   -9.0898 H         1 <0>         0.1213
     62 H28         0.8896  -11.8896  -12.9134 H         1 <0>         0.0574
     63 H29         1.4961   -9.4166  -12.7478 H         1 <0>         0.0722
     64 H30         2.6021   -8.6564  -10.7027 H         1 <0>         0.0686
     65 H31         0.2123   -8.5966  -10.6703 H         1 <0>         0.3768
     66 H32         3.1141  -11.0760  -13.3583 H         1 <0>         0.3825
     67 H33        -1.1443  -11.4841  -11.7392 H         1 <0>         0.3787
     68 H34        -0.4804  -13.5469  -10.8134 H         1 <0>         0.0525
     69 H35         0.9167  -14.1591  -11.7308 H         1 <0>         0.0536
     70 H36         0.7071  -15.2322   -9.6070 H         1 <0>         0.3835
     71 H37         3.2707  -12.3843   -3.7754 H         1 <0>         0.1277
     72 H38         3.3043  -14.8464   -3.7887 H         1 <0>         0.1225
     73 H39         4.8212  -16.0488   -5.3107 H         1 <0>         0.1215
     74 H40         6.3038  -14.7891   -6.8200 H         1 <0>         0.1229
     75 H41         6.2642  -12.3271   -6.8126 H         1 <0>         0.1208
     76 H42         4.6184   -9.2668   -3.8542 H         1 <0>         0.3753
@<TRIPOS>BOND
     1    1    2 1
     2    1   37 1
     3    1   38 1
     4    1   39 1
     5    2    3 1
     6    2   40 1
     7    2   41 1
     8    3    4 1
     9    3   42 1
    10    3   43 1
    11    4    5 1
    12    4   44 1
    13    4   45 1
    14    5    6 1
    15    5   46 1
    16    5   47 1
    17    6    7 1
    18    6   48 1
    19    6   49 1
    20    7    8 1
    21    7   50 1
    22    7   51 1
    23    8    9 1
    24    8   52 1
    25    8   53 1
    26    9   10 1
    27    9   54 1
    28    9   55 1
    29   10   11 2
    30   10   12 am
    31   12   13 1
    32   12   56 1
    33   13   14 1
    34   13   15 1
    35   13   28 1
    36   15   16 1
    37   15   57 1
    38   15   58 1
    39   16   17 1
    40   16   59 1
    41   17   22 1
    42   17   18 1
    43   17   60 1
    44   18   19 2
    45   18   61 1
    46   19   20 1
    47   19   26 1
    48   20   21 1
    49   20   25 1
    50   20   62 1
    51   21   22 1
    52   21   24 1
    53   21   63 1
    54   22   23 1
    55   22   64 1
    56   23   65 1
    57   24   66 1
    58   25   67 1
    59   26   27 1
    60   26   68 1
    61   26   69 1
    62   27   70 1
    63   28   29 1
    64   28   30 1
    65   28   36 1
    66   30   35 ar
    67   30   31 ar
    68   31   32 ar
    69   31   71 1
    70   32   33 ar
    71   32   72 1
    72   33   34 ar
    73   33   73 1
    74   34   35 ar
    75   34   74 1
    76   35   75 1
    77   36   76 1
@<TRIPOS>MOLECULE
CHEMBL59041__24
   77    78     0     0     0
SMALL
USER_CHARGES

@<TRIPOS>ATOM
      1 C1         -0.0187    1.5258    0.0104 C.3       1 <0>        -0.1550
      2 C2          0.0021   -0.0041    0.0020 C.3       1 <0>        -0.1263
      3 C3         -1.4333   -0.5336    0.0129 C.3       1 <0>        -0.1211
      4 C4         -1.4126   -2.0635    0.0045 C.3       1 <0>        -0.1217
      5 C5         -2.8479   -2.5931    0.0153 C.3       1 <0>        -0.1202
      6 C6         -2.8272   -4.1229    0.0069 C.3       1 <0>        -0.1200
      7 C7         -4.2626   -4.6525    0.0178 C.3       1 <0>        -0.1202
      8 C8         -4.2418   -6.1823    0.0094 C.3       1 <0>        -0.1045
      9 C9         -5.6772   -6.7119    0.0202 C.3       1 <0>        -0.1408
     10 C10        -5.6568   -8.2187    0.0119 C.2       1 <0>         0.5142
     11 O1         -4.5984   -8.8108   -0.0014 O.2       1 <0>        -0.4877
     12 N1         -6.8147   -8.9084    0.0193 N.am      1 <0>        -0.7616
     13 C11        -6.7948  -10.3733    0.0112 C.3       1 <0>         0.0944
     14 H1         -5.9426  -10.7283    0.5907 H         1 <0>         0.1236
     15 C12        -8.0892  -10.9043    0.6304 C.3       1 <0>        -0.0187
     16 N2         -8.2633  -10.3282    1.9705 N.4       1 <0>        -0.5000
     17 C13        -9.5062  -10.8381    2.5650 C.3       1 <0>         0.0811
     18 C14        -9.3902  -12.3208    2.7649 C.2       1 <0>        -0.2032
     19 C15        -9.7903  -12.9429    3.8272 C.2       1 <0>        -0.0814
     20 C16       -10.4172  -12.2671    5.0114 C.3       1 <0>         0.0984
     21 C17       -10.8951  -10.8653    4.6263 C.3       1 <0>         0.0951
     22 C18        -9.7493  -10.1428    3.9063 C.3       1 <0>         0.0982
     23 O2        -10.1081   -8.7779    3.6818 O.3       1 <0>        -0.5580
     24 O3        -11.2556  -10.1403    5.8038 O.3       1 <0>        -0.5543
     25 O4        -11.5311  -13.0399    5.4630 O.3       1 <0>        -0.5490
     26 C19        -9.6161  -14.4389    3.8778 C.3       1 <0>         0.0929
     27 O5         -9.0069  -14.8888    2.6659 O.3       1 <0>        -0.5732
     28 C20        -6.6759  -10.8738   -1.4297 C.3       1 <0>         0.1463
     29 H2         -6.6611  -11.9637   -1.4357 H         1 <0>         0.1247
     30 C21        -5.4009  -10.3508   -2.0396 C.ar      1 <0>        -0.1153
     31 C22        -5.3437   -9.0544   -2.5160 C.ar      1 <0>        -0.1048
     32 C23        -4.1742   -8.5746   -3.0755 C.ar      1 <0>        -0.1085
     33 C24        -3.0618   -9.3911   -3.1580 C.ar      1 <0>        -0.1032
     34 C25        -3.1187  -10.6872   -2.6807 C.ar      1 <0>        -0.1093
     35 C26        -4.2869  -11.1655   -2.1174 C.ar      1 <0>        -0.0979
     36 O6         -7.7932  -10.4084   -2.1893 O.3       1 <0>        -0.5447
     37 H3          1.0039    1.9031    0.0027 H         1 <0>         0.0548
     38 H4         -0.5459    1.8868   -0.8726 H         1 <0>         0.0537
     39 H5         -0.5289    1.8773    0.9072 H         1 <0>         0.0535
     40 H6          0.5123   -0.3556   -0.8948 H         1 <0>         0.0607
     41 H7          0.5293   -0.3651    0.8851 H         1 <0>         0.0604
     42 H8         -1.9435   -0.1821    0.9097 H         1 <0>         0.0605
     43 H9         -1.9605   -0.1726   -0.8702 H         1 <0>         0.0609
     44 H10        -0.9024   -2.4150   -0.8923 H         1 <0>         0.0612
     45 H11        -0.8854   -2.4246    0.8875 H         1 <0>         0.0608
     46 H12        -3.3581   -2.2415    0.9121 H         1 <0>         0.0605
     47 H13        -3.3751   -2.2320   -0.8677 H         1 <0>         0.0612
     48 H14        -2.3170   -4.4744   -0.8899 H         1 <0>         0.0625
     49 H15        -2.3000   -4.4840    0.8900 H         1 <0>         0.0617
     50 H16        -4.7728   -4.3010    0.9146 H         1 <0>         0.0618
     51 H17        -4.7898   -4.2914   -0.8653 H         1 <0>         0.0630
     52 H18        -3.7316   -6.5338   -0.8874 H         1 <0>         0.0729
     53 H19        -3.7146   -6.5434    0.8924 H         1 <0>         0.0692
     54 H20        -6.1874   -6.3604    0.9170 H         1 <0>         0.0946
     55 H21        -6.2044   -6.3508   -0.8628 H         1 <0>         0.0970
     56 H22        -7.6612   -8.4349    0.0299 H         1 <0>         0.4012
     57 H23        -8.9344  -10.6239    0.0018 H         1 <0>         0.1490
     58 H24        -8.0371  -11.9904    0.7058 H         1 <0>         0.1534
     59 H25        -7.4810  -10.5878    2.5524 H         1 <0>         0.4277
     60 H26       -10.3395  -10.6301    1.8939 H         1 <0>         0.1595
     61 H27        -8.9456  -12.9054    1.9730 H         1 <0>         0.1602
     62 H28        -9.6837  -12.1909    5.8141 H         1 <0>         0.0940
     63 H29       -11.7555  -10.9414    3.9613 H         1 <0>         0.0885
     64 H30        -8.8456  -10.1921    4.5137 H         1 <0>         0.0901
     65 H31       -10.2767   -8.2772    4.4917 H         1 <0>         0.4167
     66 H32       -11.9650  -10.5510    6.3168 H         1 <0>         0.4075
     67 H33       -11.3016  -13.9391    5.7348 H         1 <0>         0.3931
     68 H34        -8.9807  -14.7024    4.7234 H         1 <0>         0.0766
     69 H35       -10.5901  -14.9145    3.9931 H         1 <0>         0.0795
     70 H36        -8.8641  -15.8445    2.6287 H         1 <0>         0.4007
     71 H37        -6.2128   -8.4165   -2.4516 H         1 <0>         0.1082
     72 H38        -4.1297   -7.5620   -3.4484 H         1 <0>         0.1205
     73 H39        -2.1483   -9.0165   -3.5957 H         1 <0>         0.1232
     74 H40        -2.2497  -11.3251   -2.7454 H         1 <0>         0.1239
     75 H41        -4.3303  -12.1769   -1.7411 H         1 <0>         0.1191
     76 H42        -7.8692   -9.4451   -2.2272 H         1 <0>         0.3760
     77 H43        -8.3116   -9.3228    1.9007 H         1 <0>         0.4324
@<TRIPOS>BOND
     1    1    2 1
     2    1   37 1
     3    1   38 1
     4    1   39 1
     5    2    3 1
     6    2   40 1
     7    2   41 1
     8    3    4 1
     9    3   42 1
    10    3   43 1
    11    4    5 1
    12    4   44 1
    13    4   45 1
    14    5    6 1
    15    5   46 1
    16    5   47 1
    17    6    7 1
    18    6   48 1
    19    6   49 1
    20    7    8 1
    21    7   50 1
    22    7   51 1
    23    8    9 1
    24    8   52 1
    25    8   53 1
    26    9   10 1
    27    9   54 1
    28    9   55 1
    29   10   11 2
    30   10   12 am
    31   12   13 1
    32   12   56 1
    33   13   14 1
    34   13   15 1
    35   13   28 1
    36   15   16 1
    37   15   57 1
    38   15   58 1
    39   16   17 1
    40   16   59 1
    41   16   77 1
    42   17   22 1
    43   17   18 1
    44   17   60 1
    45   18   19 2
    46   18   61 1
    47   19   20 1
    48   19   26 1
    49   20   21 1
    50   20   25 1
    51   20   62 1
    52   21   22 1
    53   21   24 1
    54   21   63 1
    55   22   23 1
    56   22   64 1
    57   23   65 1
    58   24   66 1
    59   25   67 1
    60   26   27 1
    61   26   68 1
    62   26   69 1
    63   27   70 1
    64   28   29 1
    65   28   30 1
    66   28   36 1
    67   30   35 ar
    68   30   31 ar
    69   31   32 ar
    70   31   71 1
    71   32   33 ar
    72   32   72 1
    73   33   34 ar
    74   33   73 1
    75   34   35 ar
    76   34   74 1
    77   35   75 1
    78   36   76 1
@<TRIPOS>MOLECULE
CHEMBL59041__25
   76    77     0     0     0
SMALL
USER_CHARGES

@<TRIPOS>ATOM
      1 C1         -0.0187    1.5258    0.0104 C.3       1 <0>        -0.1542
      2 C2          0.0021   -0.0041    0.0020 C.3       1 <0>        -0.1264
      3 C3          0.7182   -0.4975   -1.2568 C.3       1 <0>        -0.1210
      4 C4          0.7390   -2.0273   -1.2652 C.3       1 <0>        -0.1216
      5 C5          1.4551   -2.5207   -2.5240 C.3       1 <0>        -0.1200
      6 C6          1.4758   -4.0506   -2.5324 C.3       1 <0>        -0.1203
      7 C7          2.1920   -4.5440   -3.7912 C.3       1 <0>        -0.1201
      8 C8          2.2127   -6.0738   -3.7996 C.3       1 <0>        -0.1039
      9 C9          2.9289   -6.5673   -5.0584 C.3       1 <0>        -0.1407
     10 C10         2.9493   -8.0741   -5.0667 C.2       1 <0>         0.5049
     11 O1          2.4411   -8.6925   -4.1555 O.2       1 <0>        -0.5282
     12 N1          3.5323   -8.7345   -6.0867 N.am      1 <0>        -0.7178
     13 C11         3.5522  -10.1994   -6.0948 C.3       1 <0>         0.1225
     14 H1          2.6300  -10.5777   -5.6537 H         1 <0>         0.0958
     15 C12         3.6711  -10.6999   -7.5357 C.3       1 <0>         0.0503
     16 N2          2.5886  -10.1243   -8.3449 N.3       1 <0>        -0.6627
     17 C13         2.6710  -10.5839   -9.7377 C.3       1 <0>         0.1251
     18 C14         1.9920  -11.9163   -9.8629 C.2       1 <0>        -0.1504
     19 C15         1.2078  -12.2418  -10.8400 C.2       1 <0>        -0.1607
     20 C16         0.8605  -11.3288  -11.9792 C.3       1 <0>         0.1161
     21 C17         1.8595  -10.1718  -12.0509 C.3       1 <0>         0.0856
     22 C18         1.9938   -9.5595  -10.6508 C.3       1 <0>         0.1373
     23 O2          2.7912   -8.3756  -10.7189 O.3       1 <0>        -0.5435
     24 O3          1.3831   -9.1817  -12.9646 O.3       1 <0>        -0.5603
     25 O4          0.8986  -12.0640  -13.2040 O.3       1 <0>        -0.5594
     26 C19         0.6067  -13.6237  -10.8334 C.3       1 <0>         0.1060
     27 O5          1.0554  -14.3328   -9.6767 O.3       1 <0>        -0.5671
     28 C20         4.7485  -10.6977   -5.2814 C.3       1 <0>         0.1400
     29 H2          5.6706  -10.3194   -5.7225 H         1 <0>         0.0639
     30 C21         4.7689  -12.2045   -5.2897 C.ar      1 <0>        -0.0843
     31 C22         3.9359  -12.9117   -4.4431 C.ar      1 <0>        -0.0882
     32 C23         3.9546  -14.2939   -4.4506 C.ar      1 <0>        -0.1223
     33 C24         4.8060  -14.9689   -5.3052 C.ar      1 <0>        -0.1148
     34 C25         5.6384  -14.2617   -6.1526 C.ar      1 <0>        -0.1213
     35 C26         5.6166  -12.8795   -6.1480 C.ar      1 <0>        -0.1096
     36 O6          4.6374  -10.2302   -3.9356 O.3       1 <0>        -0.5434
     37 H3          1.0039    1.9031    0.0027 H         1 <0>         0.0532
     38 H4         -0.5459    1.8868   -0.8726 H         1 <0>         0.0532
     39 H5         -0.5289    1.8773    0.9072 H         1 <0>         0.0532
     40 H6          0.5293   -0.3651    0.8851 H         1 <0>         0.0603
     41 H7         -1.0205   -0.3814    0.0098 H         1 <0>         0.0602
     42 H8          0.1910   -0.1364   -2.1398 H         1 <0>         0.0604
     43 H9          1.7408   -0.1202   -1.2645 H         1 <0>         0.0604
     44 H10         1.2661   -2.3884   -0.3821 H         1 <0>         0.0608
     45 H11        -0.2836   -2.4046   -1.2575 H         1 <0>         0.0606
     46 H12         0.9279   -2.1597   -3.4071 H         1 <0>         0.0604
     47 H13         2.4777   -2.1435   -2.5317 H         1 <0>         0.0605
     48 H14         2.0030   -4.4117   -1.6494 H         1 <0>         0.0619
     49 H15         0.4533   -4.4279   -2.5247 H         1 <0>         0.0616
     50 H16         1.6648   -4.1829   -4.6743 H         1 <0>         0.0616
     51 H17         3.2146   -4.1667   -3.7990 H         1 <0>         0.0616
     52 H18         2.7399   -6.4349   -2.9166 H         1 <0>         0.0694
     53 H19         1.1901   -6.4511   -3.7919 H         1 <0>         0.0687
     54 H20         2.4017   -6.2062   -5.9415 H         1 <0>         0.0944
     55 H21         3.9515   -6.1900   -5.0662 H         1 <0>         0.0919
     56 H22         3.9388   -8.2400   -6.8155 H         1 <0>         0.4078
     57 H23         4.6335  -10.3962   -7.9476 H         1 <0>         0.0818
     58 H24         3.5966  -11.7872   -7.5499 H         1 <0>         0.0556
     59 H25         1.6865  -10.3378   -7.9464 H         1 <0>         0.3451
     60 H26         3.7180  -10.6859  -10.0231 H         1 <0>         0.1008
     61 H27         2.1689  -12.6494   -9.0898 H         1 <0>         0.1342
     62 H28        -0.1432  -10.9308  -11.8302 H         1 <0>         0.0772
     63 H29         2.8287  -10.5445  -12.3823 H         1 <0>         0.0746
     64 H30         1.0055   -9.3172  -10.2601 H         1 <0>         0.0655
     65 H31         2.4197   -7.6830  -11.2823 H         1 <0>         0.3852
     66 H32         1.2596   -9.5063  -13.8670 H         1 <0>         0.3915
     67 H33         0.2821  -12.8083  -13.2353 H         1 <0>         0.3824
     68 H34        -0.4804  -13.5469  -10.8134 H         1 <0>         0.0583
     69 H35         0.9167  -14.1591  -11.7308 H         1 <0>         0.0620
     70 H36         0.7071  -15.2322   -9.6070 H         1 <0>         0.3866
     71 H37         3.2707  -12.3843   -3.7754 H         1 <0>         0.1278
     72 H38         3.3043  -14.8464   -3.7887 H         1 <0>         0.1226
     73 H39         4.8212  -16.0488   -5.3107 H         1 <0>         0.1216
     74 H40         6.3038  -14.7891   -6.8200 H         1 <0>         0.1230
     75 H41         6.2642  -12.3271   -6.8126 H         1 <0>         0.1210
     76 H42         4.6184   -9.2668   -3.8542 H         1 <0>         0.3757
@<TRIPOS>BOND
     1    1    2 1
     2    1   37 1
     3    1   38 1
     4    1   39 1
     5    2    3 1
     6    2   40 1
     7    2   41 1
     8    3    4 1
     9    3   42 1
    10    3   43 1
    11    4    5 1
    12    4   44 1
    13    4   45 1
    14    5    6 1
    15    5   46 1
    16    5   47 1
    17    6    7 1
    18    6   48 1
    19    6   49 1
    20    7    8 1
    21    7   50 1
    22    7   51 1
    23    8    9 1
    24    8   52 1
    25    8   53 1
    26    9   10 1
    27    9   54 1
    28    9   55 1
    29   10   11 2
    30   10   12 am
    31   12   13 1
    32   12   56 1
    33   13   14 1
    34   13   15 1
    35   13   28 1
    36   15   16 1
    37   15   57 1
    38   15   58 1
    39   16   17 1
    40   16   59 1
    41   17   22 1
    42   17   18 1
    43   17   60 1
    44   18   19 2
    45   18   61 1
    46   19   20 1
    47   19   26 1
    48   20   21 1
    49   20   25 1
    50   20   62 1
    51   21   22 1
    52   21   24 1
    53   21   63 1
    54   22   23 1
    55   22   64 1
    56   23   65 1
    57   24   66 1
    58   25   67 1
    59   26   27 1
    60   26   68 1
    61   26   69 1
    62   27   70 1
    63   28   29 1
    64   28   30 1
    65   28   36 1
    66   30   35 ar
    67   30   31 ar
    68   31   32 ar
    69   31   71 1
    70   32   33 ar
    71   32   72 1
    72   33   34 ar
    73   33   73 1
    74   34   35 ar
    75   34   74 1
    76   35   75 1
    77   36   76 1
@<TRIPOS>MOLECULE
CHEMBL59041__26
   77    78     0     0     0
SMALL
USER_CHARGES

@<TRIPOS>ATOM
      1 C1         -0.0187    1.5258    0.0104 C.3       1 <0>        -0.1550
      2 C2          0.0021   -0.0041    0.0020 C.3       1 <0>        -0.1264
      3 C3         -1.4333   -0.5336    0.0129 C.3       1 <0>        -0.1211
      4 C4         -1.4126   -2.0635    0.0045 C.3       1 <0>        -0.1218
      5 C5         -2.8479   -2.5931    0.0153 C.3       1 <0>        -0.1201
      6 C6         -2.8272   -4.1229    0.0069 C.3       1 <0>        -0.1202
      7 C7         -4.2626   -4.6525    0.0178 C.3       1 <0>        -0.1199
      8 C8         -4.2418   -6.1823    0.0094 C.3       1 <0>        -0.1049
      9 C9         -5.6772   -6.7119    0.0202 C.3       1 <0>        -0.1403
     10 C10        -5.6568   -8.2187    0.0119 C.2       1 <0>         0.5139
     11 O1         -4.5984   -8.8108   -0.0014 O.2       1 <0>        -0.4864
     12 N1         -6.8147   -8.9084    0.0193 N.am      1 <0>        -0.7614
     13 C11        -6.7948  -10.3733    0.0112 C.3       1 <0>         0.0950
     14 H1         -5.9426  -10.7283    0.5907 H         1 <0>         0.1237
     15 C12        -8.0892  -10.9043    0.6304 C.3       1 <0>        -0.0194
     16 N2         -8.2633  -10.3282    1.9705 N.4       1 <0>        -0.4965
     17 C13        -9.5062  -10.8381    2.5650 C.3       1 <0>         0.0830
     18 C14        -9.3902  -12.3208    2.7649 C.2       1 <0>        -0.2032
     19 C15        -9.7903  -12.9429    3.8272 C.2       1 <0>        -0.0735
     20 C16       -10.4163  -12.2669    5.0118 C.3       1 <0>         0.1040
     21 C17       -10.8945  -10.8652    4.6269 C.3       1 <0>         0.0925
     22 C18        -9.7493  -10.1428    3.9063 C.3       1 <0>         0.0957
     23 O2         -8.5645  -10.2075    4.7026 O.3       1 <0>        -0.5660
     24 O3        -11.2541  -10.1401    5.8046 O.3       1 <0>        -0.5548
     25 O4        -11.5299  -13.0397    5.4643 O.3       1 <0>        -0.5538
     26 C19        -9.6161  -14.4389    3.8778 C.3       1 <0>         0.0931
     27 O5         -9.0069  -14.8888    2.6659 O.3       1 <0>        -0.5730
     28 C20        -6.6759  -10.8738   -1.4297 C.3       1 <0>         0.1463
     29 H2         -6.6611  -11.9637   -1.4357 H         1 <0>         0.1247
     30 C21        -5.4009  -10.3508   -2.0396 C.ar      1 <0>        -0.1152
     31 C22        -5.3437   -9.0544   -2.5160 C.ar      1 <0>        -0.1050
     32 C23        -4.1742   -8.5746   -3.0755 C.ar      1 <0>        -0.1087
     33 C24        -3.0618   -9.3911   -3.1580 C.ar      1 <0>        -0.1032
     34 C25        -3.1187  -10.6872   -2.6807 C.ar      1 <0>        -0.1091
     35 C26        -4.2869  -11.1655   -2.1174 C.ar      1 <0>        -0.0978
     36 O6         -7.7932  -10.4084   -2.1893 O.3       1 <0>        -0.5448
     37 H3          1.0039    1.9031    0.0027 H         1 <0>         0.0549
     38 H4         -0.5459    1.8868   -0.8726 H         1 <0>         0.0537
     39 H5         -0.5289    1.8773    0.9072 H         1 <0>         0.0535
     40 H6          0.5123   -0.3556   -0.8948 H         1 <0>         0.0607
     41 H7          0.5293   -0.3651    0.8851 H         1 <0>         0.0604
     42 H8         -1.9435   -0.1821    0.9097 H         1 <0>         0.0605
     43 H9         -1.9605   -0.1726   -0.8702 H         1 <0>         0.0608
     44 H10        -0.9024   -2.4150   -0.8923 H         1 <0>         0.0612
     45 H11        -0.8854   -2.4246    0.8875 H         1 <0>         0.0609
     46 H12        -3.3581   -2.2415    0.9121 H         1 <0>         0.0605
     47 H13        -3.3751   -2.2320   -0.8677 H         1 <0>         0.0611
     48 H14        -2.3170   -4.4744   -0.8899 H         1 <0>         0.0626
     49 H15        -2.3000   -4.4840    0.8900 H         1 <0>         0.0619
     50 H16        -4.7728   -4.3010    0.9146 H         1 <0>         0.0616
     51 H17        -4.7898   -4.2914   -0.8653 H         1 <0>         0.0629
     52 H18        -3.7316   -6.5338   -0.8874 H         1 <0>         0.0731
     53 H19        -3.7146   -6.5434    0.8924 H         1 <0>         0.0696
     54 H20        -6.1874   -6.3604    0.9170 H         1 <0>         0.0939
     55 H21        -6.2044   -6.3508   -0.8628 H         1 <0>         0.0966
     56 H22        -7.6612   -8.4349    0.0299 H         1 <0>         0.3995
     57 H23        -8.9344  -10.6239    0.0018 H         1 <0>         0.1478
     58 H24        -8.0371  -11.9904    0.7058 H         1 <0>         0.1530
     59 H25        -7.4810  -10.5878    2.5524 H         1 <0>         0.4378
     60 H26       -10.3395  -10.6301    1.8939 H         1 <0>         0.1606
     61 H27        -8.9456  -12.9054    1.9730 H         1 <0>         0.1538
     62 H28        -9.6823  -12.1907    5.8139 H         1 <0>         0.0957
     63 H29       -11.7553  -10.9413    3.9626 H         1 <0>         0.0876
     64 H30       -10.0230   -9.1017    3.7350 H         1 <0>         0.1031
     65 H31        -8.6489   -9.7849    5.5682 H         1 <0>         0.4158
     66 H32       -11.9631  -10.5508    6.3182 H         1 <0>         0.4063
     67 H33       -11.3003  -13.9389    5.7360 H         1 <0>         0.3922
     68 H34        -8.9807  -14.7024    4.7234 H         1 <0>         0.0750
     69 H35       -10.5901  -14.9145    3.9931 H         1 <0>         0.0772
     70 H36        -8.8641  -15.8445    2.6287 H         1 <0>         0.3994
     71 H37        -6.2128   -8.4165   -2.4516 H         1 <0>         0.1080
     72 H38        -4.1297   -7.5620   -3.4484 H         1 <0>         0.1204
     73 H39        -2.1483   -9.0165   -3.5957 H         1 <0>         0.1232
     74 H40        -2.2497  -11.3251   -2.7454 H         1 <0>         0.1240
     75 H41        -4.3303  -12.1769   -1.7411 H         1 <0>         0.1192
     76 H42        -7.8692   -9.4451   -2.2272 H         1 <0>         0.3754
     77 H43        -8.3116   -9.3228    1.9007 H         1 <0>         0.4244
@<TRIPOS>BOND
     1    1    2 1
     2    1   37 1
     3    1   38 1
     4    1   39 1
     5    2    3 1
     6    2   40 1
     7    2   41 1
     8    3    4 1
     9    3   42 1
    10    3   43 1
    11    4    5 1
    12    4   44 1
    13    4   45 1
    14    5    6 1
    15    5   46 1
    16    5   47 1
    17    6    7 1
    18    6   48 1
    19    6   49 1
    20    7    8 1
    21    7   50 1
    22    7   51 1
    23    8    9 1
    24    8   52 1
    25    8   53 1
    26    9   10 1
    27    9   54 1
    28    9   55 1
    29   10   11 2
    30   10   12 am
    31   12   13 1
    32   12   56 1
    33   13   14 1
    34   13   15 1
    35   13   28 1
    36   15   16 1
    37   15   57 1
    38   15   58 1
    39   16   17 1
    40   16   59 1
    41   16   77 1
    42   17   22 1
    43   17   18 1
    44   17   60 1
    45   18   19 2
    46   18   61 1
    47   19   20 1
    48   19   26 1
    49   20   21 1
    50   20   25 1
    51   20   62 1
    52   21   22 1
    53   21   24 1
    54   21   63 1
    55   22   23 1
    56   22   64 1
    57   23   65 1
    58   24   66 1
    59   25   67 1
    60   26   27 1
    61   26   68 1
    62   26   69 1
    63   27   70 1
    64   28   29 1
    65   28   30 1
    66   28   36 1
    67   30   35 ar
    68   30   31 ar
    69   31   32 ar
    70   31   71 1
    71   32   33 ar
    72   32   72 1
    73   33   34 ar
    74   33   73 1
    75   34   35 ar
    76   34   74 1
    77   35   75 1
    78   36   76 1
@<TRIPOS>MOLECULE
CHEMBL59041__27
   76    77     0     0     0
SMALL
USER_CHARGES

@<TRIPOS>ATOM
      1 C1         -0.0187    1.5258    0.0104 C.3       1 <0>        -0.1542
      2 C2          0.0021   -0.0041    0.0020 C.3       1 <0>        -0.1264
      3 C3          0.7182   -0.4975   -1.2568 C.3       1 <0>        -0.1209
      4 C4          0.7390   -2.0273   -1.2652 C.3       1 <0>        -0.1217
      5 C5          1.4551   -2.5207   -2.5240 C.3       1 <0>        -0.1200
      6 C6          1.4758   -4.0506   -2.5324 C.3       1 <0>        -0.1204
      7 C7          2.1920   -4.5440   -3.7912 C.3       1 <0>        -0.1199
      8 C8          2.2127   -6.0738   -3.7996 C.3       1 <0>        -0.1042
      9 C9          2.9289   -6.5673   -5.0584 C.3       1 <0>        -0.1405
     10 C10         2.9493   -8.0741   -5.0667 C.2       1 <0>         0.5052
     11 O1          2.4411   -8.6925   -4.1555 O.2       1 <0>        -0.5267
     12 N1          3.5323   -8.7345   -6.0867 N.am      1 <0>        -0.7181
     13 C11         3.5522  -10.1994   -6.0948 C.3       1 <0>         0.1228
     14 H1          2.6300  -10.5777   -5.6537 H         1 <0>         0.0963
     15 C12         3.6711  -10.6999   -7.5357 C.3       1 <0>         0.0460
     16 N2          2.5886  -10.1243   -8.3449 N.3       1 <0>        -0.6614
     17 C13         2.6710  -10.5839   -9.7377 C.3       1 <0>         0.1263
     18 C14         1.9920  -11.9163   -9.8629 C.2       1 <0>        -0.1500
     19 C15         1.2078  -12.2418  -10.8400 C.2       1 <0>        -0.1532
     20 C16         0.8598  -11.3285  -11.9787 C.3       1 <0>         0.1219
     21 C17         1.8586  -10.1715  -12.0507 C.3       1 <0>         0.0831
     22 C18         1.9938   -9.5595  -10.6508 C.3       1 <0>         0.1342
     23 O2          0.6981   -9.2419  -10.1386 O.3       1 <0>        -0.5492
     24 O3          1.3816   -9.1811  -12.9638 O.3       1 <0>        -0.5610
     25 O4          0.8970  -12.0633  -13.2037 O.3       1 <0>        -0.5644
     26 C19         0.6067  -13.6237  -10.8334 C.3       1 <0>         0.1062
     27 O5          1.0554  -14.3328   -9.6767 O.3       1 <0>        -0.5669
     28 C20         4.7485  -10.6977   -5.2814 C.3       1 <0>         0.1404
     29 H2          5.6706  -10.3194   -5.7225 H         1 <0>         0.0633
     30 C21         4.7689  -12.2045   -5.2897 C.ar      1 <0>        -0.0845
     31 C22         3.9359  -12.9117   -4.4431 C.ar      1 <0>        -0.0879
     32 C23         3.9546  -14.2939   -4.4506 C.ar      1 <0>        -0.1220
     33 C24         4.8060  -14.9689   -5.3052 C.ar      1 <0>        -0.1147
     34 C25         5.6384  -14.2617   -6.1526 C.ar      1 <0>        -0.1214
     35 C26         5.6166  -12.8795   -6.1480 C.ar      1 <0>        -0.1098
     36 O6          4.6374  -10.2302   -3.9356 O.3       1 <0>        -0.5433
     37 H3          1.0039    1.9031    0.0027 H         1 <0>         0.0532
     38 H4         -0.5459    1.8868   -0.8726 H         1 <0>         0.0532
     39 H5         -0.5289    1.8773    0.9072 H         1 <0>         0.0532
     40 H6          0.5293   -0.3651    0.8851 H         1 <0>         0.0603
     41 H7         -1.0205   -0.3814    0.0098 H         1 <0>         0.0603
     42 H8          0.1910   -0.1364   -2.1398 H         1 <0>         0.0604
     43 H9          1.7408   -0.1202   -1.2645 H         1 <0>         0.0603
     44 H10         1.2661   -2.3884   -0.3821 H         1 <0>         0.0608
     45 H11        -0.2836   -2.4046   -1.2575 H         1 <0>         0.0608
     46 H12         0.9279   -2.1597   -3.4071 H         1 <0>         0.0604
     47 H13         2.4777   -2.1435   -2.5317 H         1 <0>         0.0603
     48 H14         2.0030   -4.4117   -1.6494 H         1 <0>         0.0619
     49 H15         0.4533   -4.4279   -2.5247 H         1 <0>         0.0618
     50 H16         1.6648   -4.1829   -4.6743 H         1 <0>         0.0615
     51 H17         3.2146   -4.1667   -3.7990 H         1 <0>         0.0613
     52 H18         2.7399   -6.4349   -2.9166 H         1 <0>         0.0695
     53 H19         1.1901   -6.4511   -3.7919 H         1 <0>         0.0692
     54 H20         2.4017   -6.2062   -5.9415 H         1 <0>         0.0942
     55 H21         3.9515   -6.1900   -5.0662 H         1 <0>         0.0914
     56 H22         3.9388   -8.2400   -6.8155 H         1 <0>         0.4055
     57 H23         4.6335  -10.3962   -7.9476 H         1 <0>         0.0796
     58 H24         3.5966  -11.7872   -7.5499 H         1 <0>         0.0557
     59 H25         1.6865  -10.3378   -7.9464 H         1 <0>         0.3554
     60 H26         3.7180  -10.6859  -10.0231 H         1 <0>         0.1012
     61 H27         2.1689  -12.6494   -9.0898 H         1 <0>         0.1273
     62 H28        -0.1439  -10.9305  -11.8289 H         1 <0>         0.0796
     63 H29         2.8276  -10.5441  -12.3829 H         1 <0>         0.0736
     64 H30         2.6021   -8.6564  -10.7027 H         1 <0>         0.0776
     65 H31         0.2123   -8.5966  -10.6703 H         1 <0>         0.3830
     66 H32         1.2576   -9.5055  -13.8663 H         1 <0>         0.3904
     67 H33         0.2805  -12.8076  -13.2348 H         1 <0>         0.3814
     68 H34        -0.4804  -13.5469  -10.8134 H         1 <0>         0.0567
     69 H35         0.9167  -14.1591  -11.7308 H         1 <0>         0.0596
     70 H36         0.7071  -15.2322   -9.6070 H         1 <0>         0.3851
     71 H37         3.2707  -12.3843   -3.7754 H         1 <0>         0.1279
     72 H38         3.3043  -14.8464   -3.7887 H         1 <0>         0.1227
     73 H39         4.8212  -16.0488   -5.3107 H         1 <0>         0.1217
     74 H40         6.3038  -14.7891   -6.8200 H         1 <0>         0.1229
     75 H41         6.2642  -12.3271   -6.8126 H         1 <0>         0.1206
     76 H42         4.6184   -9.2668   -3.8542 H         1 <0>         0.3755
@<TRIPOS>BOND
     1    1    2 1
     2    1   37 1
     3    1   38 1
     4    1   39 1
     5    2    3 1
     6    2   40 1
     7    2   41 1
     8    3    4 1
     9    3   42 1
    10    3   43 1
    11    4    5 1
    12    4   44 1
    13    4   45 1
    14    5    6 1
    15    5   46 1
    16    5   47 1
    17    6    7 1
    18    6   48 1
    19    6   49 1
    20    7    8 1
    21    7   50 1
    22    7   51 1
    23    8    9 1
    24    8   52 1
    25    8   53 1
    26    9   10 1
    27    9   54 1
    28    9   55 1
    29   10   11 2
    30   10   12 am
    31   12   13 1
    32   12   56 1
    33   13   14 1
    34   13   15 1
    35   13   28 1
    36   15   16 1
    37   15   57 1
    38   15   58 1
    39   16   17 1
    40   16   59 1
    41   17   22 1
    42   17   18 1
    43   17   60 1
    44   18   19 2
    45   18   61 1
    46   19   20 1
    47   19   26 1
    48   20   21 1
    49   20   25 1
    50   20   62 1
    51   21   22 1
    52   21   24 1
    53   21   63 1
    54   22   23 1
    55   22   64 1
    56   23   65 1
    57   24   66 1
    58   25   67 1
    59   26   27 1
    60   26   68 1
    61   26   69 1
    62   27   70 1
    63   28   29 1
    64   28   30 1
    65   28   36 1
    66   30   35 ar
    67   30   31 ar
    68   31   32 ar
    69   31   71 1
    70   32   33 ar
    71   32   72 1
    72   33   34 ar
    73   33   73 1
    74   34   35 ar
    75   34   74 1
    76   35   75 1
    77   36   76 1
@<TRIPOS>MOLECULE
CHEMBL59041__28
   77    78     0     0     0
SMALL
USER_CHARGES

@<TRIPOS>ATOM
      1 C1         -0.0187    1.5258    0.0104 C.3       1 <0>        -0.1550
      2 C2          0.0021   -0.0041    0.0020 C.3       1 <0>        -0.1264
      3 C3         -1.4333   -0.5336    0.0129 C.3       1 <0>        -0.1211
      4 C4         -1.4126   -2.0635    0.0045 C.3       1 <0>        -0.1217
      5 C5         -2.8479   -2.5931    0.0153 C.3       1 <0>        -0.1202
      6 C6         -2.8272   -4.1229    0.0069 C.3       1 <0>        -0.1200
      7 C7         -4.2626   -4.6525    0.0178 C.3       1 <0>        -0.1201
      8 C8         -4.2418   -6.1823    0.0094 C.3       1 <0>        -0.1044
      9 C9         -5.6772   -6.7119    0.0202 C.3       1 <0>        -0.1408
     10 C10        -5.6568   -8.2187    0.0119 C.2       1 <0>         0.5142
     11 O1         -4.5984   -8.8108   -0.0014 O.2       1 <0>        -0.4883
     12 N1         -6.8147   -8.9084    0.0193 N.am      1 <0>        -0.7612
     13 C11        -6.7948  -10.3733    0.0112 C.3       1 <0>         0.0946
     14 H1         -5.9426  -10.7283    0.5907 H         1 <0>         0.1230
     15 C12        -8.0892  -10.9043    0.6304 C.3       1 <0>        -0.0180
     16 N2         -8.2633  -10.3282    1.9705 N.4       1 <0>        -0.5028
     17 C13        -9.5062  -10.8381    2.5650 C.3       1 <0>         0.0846
     18 C14        -9.3902  -12.3208    2.7649 C.2       1 <0>        -0.1904
     19 C15        -9.7903  -12.9429    3.8272 C.2       1 <0>        -0.0857
     20 C16       -10.4163  -12.2669    5.0118 C.3       1 <0>         0.0998
     21 C17       -10.8945  -10.8652    4.6269 C.3       1 <0>         0.0936
     22 C18        -9.7493  -10.1428    3.9063 C.3       1 <0>         0.0969
     23 O2        -10.1081   -8.7779    3.6818 O.3       1 <0>        -0.5544
     24 O3        -12.0231  -10.9649    3.7560 O.3       1 <0>        -0.5475
     25 O4        -11.5299  -13.0397    5.4643 O.3       1 <0>        -0.5490
     26 C19        -9.6161  -14.4389    3.8778 C.3       1 <0>         0.0939
     27 O5         -9.0069  -14.8888    2.6659 O.3       1 <0>        -0.5731
     28 C20        -6.6759  -10.8738   -1.4297 C.3       1 <0>         0.1460
     29 H2         -6.6611  -11.9637   -1.4357 H         1 <0>         0.1245
     30 C21        -5.4009  -10.3508   -2.0396 C.ar      1 <0>        -0.1148
     31 C22        -5.3437   -9.0544   -2.5160 C.ar      1 <0>        -0.1048
     32 C23        -4.1742   -8.5746   -3.0755 C.ar      1 <0>        -0.1085
     33 C24        -3.0618   -9.3911   -3.1580 C.ar      1 <0>        -0.1035
     34 C25        -3.1187  -10.6872   -2.6807 C.ar      1 <0>        -0.1093
     35 C26        -4.2869  -11.1655   -2.1174 C.ar      1 <0>        -0.0980
     36 O6         -7.7932  -10.4084   -2.1893 O.3       1 <0>        -0.5444
     37 H3          1.0039    1.9031    0.0027 H         1 <0>         0.0548
     38 H4         -0.5459    1.8868   -0.8726 H         1 <0>         0.0538
     39 H5         -0.5289    1.8773    0.9072 H         1 <0>         0.0535
     40 H6          0.5123   -0.3556   -0.8948 H         1 <0>         0.0607
     41 H7          0.5293   -0.3651    0.8851 H         1 <0>         0.0603
     42 H8         -1.9435   -0.1821    0.9097 H         1 <0>         0.0605
     43 H9         -1.9605   -0.1726   -0.8702 H         1 <0>         0.0609
     44 H10        -0.9024   -2.4150   -0.8923 H         1 <0>         0.0612
     45 H11        -0.8854   -2.4246    0.8875 H         1 <0>         0.0608
     46 H12        -3.3581   -2.2415    0.9121 H         1 <0>         0.0605
     47 H13        -3.3751   -2.2320   -0.8677 H         1 <0>         0.0612
     48 H14        -2.3170   -4.4744   -0.8899 H         1 <0>         0.0626
     49 H15        -2.3000   -4.4840    0.8900 H         1 <0>         0.0616
     50 H16        -4.7728   -4.3010    0.9146 H         1 <0>         0.0616
     51 H17        -4.7898   -4.2914   -0.8653 H         1 <0>         0.0631
     52 H18        -3.7316   -6.5338   -0.8874 H         1 <0>         0.0730
     53 H19        -3.7146   -6.5434    0.8924 H         1 <0>         0.0691
     54 H20        -6.1874   -6.3604    0.9170 H         1 <0>         0.0943
     55 H21        -6.2044   -6.3508   -0.8628 H         1 <0>         0.0969
     56 H22        -7.6612   -8.4349    0.0299 H         1 <0>         0.4013
     57 H23        -8.9344  -10.6239    0.0018 H         1 <0>         0.1483
     58 H24        -8.0371  -11.9904    0.7058 H         1 <0>         0.1523
     59 H25        -7.4810  -10.5878    2.5524 H         1 <0>         0.4249
     60 H26       -10.3395  -10.6301    1.8939 H         1 <0>         0.1643
     61 H27        -8.9456  -12.9054    1.9730 H         1 <0>         0.1562
     62 H28        -9.6823  -12.1907    5.8139 H         1 <0>         0.0907
     63 H29       -11.1688  -10.3121    5.5252 H         1 <0>         0.0921
     64 H30        -8.8456  -10.1921    4.5137 H         1 <0>         0.0958
     65 H31       -10.2767   -8.2772    4.4917 H         1 <0>         0.4084
     66 H32       -12.7794  -11.4263    4.1436 H         1 <0>         0.4019
     67 H33       -11.3003  -13.9389    5.7360 H         1 <0>         0.3942
     68 H34        -8.9807  -14.7024    4.7234 H         1 <0>         0.0739
     69 H35       -10.5901  -14.9145    3.9931 H         1 <0>         0.0772
     70 H36        -8.8641  -15.8445    2.6287 H         1 <0>         0.3995
     71 H37        -6.2128   -8.4165   -2.4516 H         1 <0>         0.1081
     72 H38        -4.1297   -7.5620   -3.4484 H         1 <0>         0.1204
     73 H39        -2.1483   -9.0165   -3.5957 H         1 <0>         0.1231
     74 H40        -2.2497  -11.3251   -2.7454 H         1 <0>         0.1238
     75 H41        -4.3303  -12.1769   -1.7411 H         1 <0>         0.1190
     76 H42        -7.8692   -9.4451   -2.2272 H         1 <0>         0.3759
     77 H43        -8.3116   -9.3228    1.9007 H         1 <0>         0.4309
@<TRIPOS>BOND
     1    1    2 1
     2    1   37 1
     3    1   38 1
     4    1   39 1
     5    2    3 1
     6    2   40 1
     7    2   41 1
     8    3    4 1
     9    3   42 1
    10    3   43 1
    11    4    5 1
    12    4   44 1
    13    4   45 1
    14    5    6 1
    15    5   46 1
    16    5   47 1
    17    6    7 1
    18    6   48 1
    19    6   49 1
    20    7    8 1
    21    7   50 1
    22    7   51 1
    23    8    9 1
    24    8   52 1
    25    8   53 1
    26    9   10 1
    27    9   54 1
    28    9   55 1
    29   10   11 2
    30   10   12 am
    31   12   13 1
    32   12   56 1
    33   13   14 1
    34   13   15 1
    35   13   28 1
    36   15   16 1
    37   15   57 1
    38   15   58 1
    39   16   17 1
    40   16   59 1
    41   16   77 1
    42   17   22 1
    43   17   18 1
    44   17   60 1
    45   18   19 2
    46   18   61 1
    47   19   20 1
    48   19   26 1
    49   20   21 1
    50   20   25 1
    51   20   62 1
    52   21   22 1
    53   21   24 1
    54   21   63 1
    55   22   23 1
    56   22   64 1
    57   23   65 1
    58   24   66 1
    59   25   67 1
    60   26   27 1
    61   26   68 1
    62   26   69 1
    63   27   70 1
    64   28   29 1
    65   28   30 1
    66   28   36 1
    67   30   35 ar
    68   30   31 ar
    69   31   32 ar
    70   31   71 1
    71   32   33 ar
    72   32   72 1
    73   33   34 ar
    74   33   73 1
    75   34   35 ar
    76   34   74 1
    77   35   75 1
    78   36   76 1
@<TRIPOS>MOLECULE
CHEMBL59041__29
   76    77     0     0     0
SMALL
USER_CHARGES

@<TRIPOS>ATOM
      1 C1         -0.0187    1.5258    0.0104 C.3       1 <0>        -0.1542
      2 C2          0.0021   -0.0041    0.0020 C.3       1 <0>        -0.1264
      3 C3          0.7182   -0.4975   -1.2568 C.3       1 <0>        -0.1210
      4 C4          0.7390   -2.0273   -1.2652 C.3       1 <0>        -0.1217
      5 C5          1.4551   -2.5207   -2.5240 C.3       1 <0>        -0.1200
      6 C6          1.4758   -4.0506   -2.5324 C.3       1 <0>        -0.1204
      7 C7          2.1920   -4.5440   -3.7912 C.3       1 <0>        -0.1200
      8 C8          2.2127   -6.0738   -3.7996 C.3       1 <0>        -0.1039
      9 C9          2.9289   -6.5673   -5.0584 C.3       1 <0>        -0.1406
     10 C10         2.9493   -8.0741   -5.0667 C.2       1 <0>         0.5046
     11 O1          2.4411   -8.6925   -4.1555 O.2       1 <0>        -0.5286
     12 N1          3.5323   -8.7345   -6.0867 N.am      1 <0>        -0.7173
     13 C11         3.5522  -10.1994   -6.0948 C.3       1 <0>         0.1227
     14 H1          2.6300  -10.5777   -5.6537 H         1 <0>         0.0952
     15 C12         3.6711  -10.6999   -7.5357 C.3       1 <0>         0.0514
     16 N2          2.5886  -10.1243   -8.3449 N.3       1 <0>        -0.6669
     17 C13         2.6710  -10.5839   -9.7377 C.3       1 <0>         0.1301
     18 C14         1.9920  -11.9163   -9.8629 C.2       1 <0>        -0.1374
     19 C15         1.2078  -12.2418  -10.8400 C.2       1 <0>        -0.1645
     20 C16         0.8598  -11.3285  -11.9787 C.3       1 <0>         0.1165
     21 C17         1.8586  -10.1715  -12.0507 C.3       1 <0>         0.0869
     22 C18         1.9938   -9.5595  -10.6508 C.3       1 <0>         0.1317
     23 O2          2.7912   -8.3756  -10.7189 O.3       1 <0>        -0.5389
     24 O3          3.1290  -10.6600  -12.4862 O.3       1 <0>        -0.5435
     25 O4          0.8970  -12.0633  -13.2037 O.3       1 <0>        -0.5589
     26 C19         0.6067  -13.6237  -10.8334 C.3       1 <0>         0.1069
     27 O5          1.0554  -14.3328   -9.6767 O.3       1 <0>        -0.5669
     28 C20         4.7485  -10.6977   -5.2814 C.3       1 <0>         0.1398
     29 H2          5.6706  -10.3194   -5.7225 H         1 <0>         0.0638
     30 C21         4.7689  -12.2045   -5.2897 C.ar      1 <0>        -0.0840
     31 C22         3.9359  -12.9117   -4.4431 C.ar      1 <0>        -0.0884
     32 C23         3.9546  -14.2939   -4.4506 C.ar      1 <0>        -0.1226
     33 C24         4.8060  -14.9689   -5.3052 C.ar      1 <0>        -0.1150
     34 C25         5.6384  -14.2617   -6.1526 C.ar      1 <0>        -0.1210
     35 C26         5.6166  -12.8795   -6.1480 C.ar      1 <0>        -0.1090
     36 O6          4.6374  -10.2302   -3.9356 O.3       1 <0>        -0.5436
     37 H3          1.0039    1.9031    0.0027 H         1 <0>         0.0533
     38 H4         -0.5459    1.8868   -0.8726 H         1 <0>         0.0531
     39 H5         -0.5289    1.8773    0.9072 H         1 <0>         0.0532
     40 H6          0.5293   -0.3651    0.8851 H         1 <0>         0.0604
     41 H7         -1.0205   -0.3814    0.0098 H         1 <0>         0.0602
     42 H8          0.1910   -0.1364   -2.1398 H         1 <0>         0.0603
     43 H9          1.7408   -0.1202   -1.2645 H         1 <0>         0.0604
     44 H10         1.2661   -2.3884   -0.3821 H         1 <0>         0.0609
     45 H11        -0.2836   -2.4046   -1.2575 H         1 <0>         0.0606
     46 H12         0.9279   -2.1597   -3.4071 H         1 <0>         0.0602
     47 H13         2.4777   -2.1435   -2.5317 H         1 <0>         0.0605
     48 H14         2.0030   -4.4117   -1.6494 H         1 <0>         0.0620
     49 H15         0.4533   -4.4279   -2.5247 H         1 <0>         0.0615
     50 H16         1.6648   -4.1829   -4.6743 H         1 <0>         0.0613
     51 H17         3.2146   -4.1667   -3.7990 H         1 <0>         0.0616
     52 H18         2.7399   -6.4349   -2.9166 H         1 <0>         0.0695
     53 H19         1.1901   -6.4511   -3.7919 H         1 <0>         0.0686
     54 H20         2.4017   -6.2062   -5.9415 H         1 <0>         0.0939
     55 H21         3.9515   -6.1900   -5.0662 H         1 <0>         0.0918
     56 H22         3.9388   -8.2400   -6.8155 H         1 <0>         0.4077
     57 H23         4.6335  -10.3962   -7.9476 H         1 <0>         0.0811
     58 H24         3.5966  -11.7872   -7.5499 H         1 <0>         0.0544
     59 H25         1.6865  -10.3378   -7.9464 H         1 <0>         0.3417
     60 H26         3.7180  -10.6859  -10.0231 H         1 <0>         0.1068
     61 H27         2.1689  -12.6494   -9.0898 H         1 <0>         0.1298
     62 H28        -0.1439  -10.9305  -11.8289 H         1 <0>         0.0730
     63 H29         1.4948   -9.4161  -12.7472 H         1 <0>         0.0695
     64 H30         1.0055   -9.3172  -10.2601 H         1 <0>         0.0721
     65 H31         2.4197   -7.6830  -11.2823 H         1 <0>         0.3756
     66 H32         3.1124  -11.0753  -13.3593 H         1 <0>         0.3844
     67 H33         0.2805  -12.8076  -13.2348 H         1 <0>         0.3835
     68 H34        -0.4804  -13.5469  -10.8134 H         1 <0>         0.0555
     69 H35         0.9167  -14.1591  -11.7308 H         1 <0>         0.0598
     70 H36         0.7071  -15.2322   -9.6070 H         1 <0>         0.3853
     71 H37         3.2707  -12.3843   -3.7754 H         1 <0>         0.1276
     72 H38         3.3043  -14.8464   -3.7887 H         1 <0>         0.1224
     73 H39         4.8212  -16.0488   -5.3107 H         1 <0>         0.1215
     74 H40         6.3038  -14.7891   -6.8200 H         1 <0>         0.1231
     75 H41         6.2642  -12.3271   -6.8126 H         1 <0>         0.1212
     76 H42         4.6184   -9.2668   -3.8542 H         1 <0>         0.3754
@<TRIPOS>BOND
     1    1    2 1
     2    1   37 1
     3    1   38 1
     4    1   39 1
     5    2    3 1
     6    2   40 1
     7    2   41 1
     8    3    4 1
     9    3   42 1
    10    3   43 1
    11    4    5 1
    12    4   44 1
    13    4   45 1
    14    5    6 1
    15    5   46 1
    16    5   47 1
    17    6    7 1
    18    6   48 1
    19    6   49 1
    20    7    8 1
    21    7   50 1
    22    7   51 1
    23    8    9 1
    24    8   52 1
    25    8   53 1
    26    9   10 1
    27    9   54 1
    28    9   55 1
    29   10   11 2
    30   10   12 am
    31   12   13 1
    32   12   56 1
    33   13   14 1
    34   13   15 1
    35   13   28 1
    36   15   16 1
    37   15   57 1
    38   15   58 1
    39   16   17 1
    40   16   59 1
    41   17   22 1
    42   17   18 1
    43   17   60 1
    44   18   19 2
    45   18   61 1
    46   19   20 1
    47   19   26 1
    48   20   21 1
    49   20   25 1
    50   20   62 1
    51   21   22 1
    52   21   24 1
    53   21   63 1
    54   22   23 1
    55   22   64 1
    56   23   65 1
    57   24   66 1
    58   25   67 1
    59   26   27 1
    60   26   68 1
    61   26   69 1
    62   27   70 1
    63   28   29 1
    64   28   30 1
    65   28   36 1
    66   30   35 ar
    67   30   31 ar
    68   31   32 ar
    69   31   71 1
    70   32   33 ar
    71   32   72 1
    72   33   34 ar
    73   33   73 1
    74   34   35 ar
    75   34   74 1
    76   35   75 1
    77   36   76 1
@<TRIPOS>MOLECULE
CHEMBL59041__30
   77    78     0     0     0
SMALL
USER_CHARGES

@<TRIPOS>ATOM
      1 C1         -0.0187    1.5258    0.0104 C.3       1 <0>        -0.1550
      2 C2          0.0021   -0.0041    0.0020 C.3       1 <0>        -0.1264
      3 C3         -1.4333   -0.5336    0.0129 C.3       1 <0>        -0.1211
      4 C4         -1.4126   -2.0635    0.0045 C.3       1 <0>        -0.1218
      5 C5         -2.8479   -2.5931    0.0153 C.3       1 <0>        -0.1200
      6 C6         -2.8272   -4.1229    0.0069 C.3       1 <0>        -0.1202
      7 C7         -4.2626   -4.6525    0.0178 C.3       1 <0>        -0.1199
      8 C8         -4.2418   -6.1823    0.0094 C.3       1 <0>        -0.1048
      9 C9         -5.6772   -6.7119    0.0202 C.3       1 <0>        -0.1403
     10 C10        -5.6568   -8.2187    0.0119 C.2       1 <0>         0.5138
     11 O1         -4.5984   -8.8108   -0.0014 O.2       1 <0>        -0.4870
     12 N1         -6.8147   -8.9084    0.0193 N.am      1 <0>        -0.7611
     13 C11        -6.7948  -10.3733    0.0112 C.3       1 <0>         0.0952
     14 H1         -5.9426  -10.7283    0.5907 H         1 <0>         0.1231
     15 C12        -8.0892  -10.9043    0.6304 C.3       1 <0>        -0.0189
     16 N2         -8.2633  -10.3282    1.9705 N.4       1 <0>        -0.4993
     17 C13        -9.5062  -10.8381    2.5650 C.3       1 <0>         0.0875
     18 C14        -9.3902  -12.3208    2.7649 C.2       1 <0>        -0.1902
     19 C15        -9.7903  -12.9429    3.8272 C.2       1 <0>        -0.0779
     20 C16       -10.4163  -12.2669    5.0118 C.3       1 <0>         0.1049
     21 C17       -10.8945  -10.8652    4.6269 C.3       1 <0>         0.0928
     22 C18        -9.7493  -10.1428    3.9063 C.3       1 <0>         0.0942
     23 O2         -8.5645  -10.2075    4.7026 O.3       1 <0>        -0.5615
     24 O3        -12.0231  -10.9649    3.7560 O.3       1 <0>        -0.5541
     25 O4        -11.5299  -13.0397    5.4643 O.3       1 <0>        -0.5537
     26 C19        -9.6161  -14.4389    3.8778 C.3       1 <0>         0.0940
     27 O5         -9.0069  -14.8888    2.6659 O.3       1 <0>        -0.5729
     28 C20        -6.6759  -10.8738   -1.4297 C.3       1 <0>         0.1459
     29 H2         -6.6611  -11.9637   -1.4357 H         1 <0>         0.1245
     30 C21        -5.4009  -10.3508   -2.0396 C.ar      1 <0>        -0.1147
     31 C22        -5.3437   -9.0544   -2.5160 C.ar      1 <0>        -0.1050
     32 C23        -4.1742   -8.5746   -3.0755 C.ar      1 <0>        -0.1088
     33 C24        -3.0618   -9.3911   -3.1580 C.ar      1 <0>        -0.1035
     34 C25        -3.1187  -10.6872   -2.6807 C.ar      1 <0>        -0.1092
     35 C26        -4.2869  -11.1655   -2.1174 C.ar      1 <0>        -0.0979
     36 O6         -7.7932  -10.4084   -2.1893 O.3       1 <0>        -0.5444
     37 H3          1.0039    1.9031    0.0027 H         1 <0>         0.0549
     38 H4         -0.5459    1.8868   -0.8726 H         1 <0>         0.0537
     39 H5         -0.5289    1.8773    0.9072 H         1 <0>         0.0534
     40 H6          0.5123   -0.3556   -0.8948 H         1 <0>         0.0607
     41 H7          0.5293   -0.3651    0.8851 H         1 <0>         0.0604
     42 H8         -1.9435   -0.1821    0.9097 H         1 <0>         0.0604
     43 H9         -1.9605   -0.1726   -0.8702 H         1 <0>         0.0608
     44 H10        -0.9024   -2.4150   -0.8923 H         1 <0>         0.0613
     45 H11        -0.8854   -2.4246    0.8875 H         1 <0>         0.0609
     46 H12        -3.3581   -2.2415    0.9121 H         1 <0>         0.0604
     47 H13        -3.3751   -2.2320   -0.8677 H         1 <0>         0.0611
     48 H14        -2.3170   -4.4744   -0.8899 H         1 <0>         0.0627
     49 H15        -2.3000   -4.4840    0.8900 H         1 <0>         0.0618
     50 H16        -4.7728   -4.3010    0.9146 H         1 <0>         0.0614
     51 H17        -4.7898   -4.2914   -0.8653 H         1 <0>         0.0629
     52 H18        -3.7316   -6.5338   -0.8874 H         1 <0>         0.0731
     53 H19        -3.7146   -6.5434    0.8924 H         1 <0>         0.0695
     54 H20        -6.1874   -6.3604    0.9170 H         1 <0>         0.0936
     55 H21        -6.2044   -6.3508   -0.8628 H         1 <0>         0.0966
     56 H22        -7.6612   -8.4349    0.0299 H         1 <0>         0.3996
     57 H23        -8.9344  -10.6239    0.0018 H         1 <0>         0.1472
     58 H24        -8.0371  -11.9904    0.7058 H         1 <0>         0.1520
     59 H25        -7.4810  -10.5878    2.5524 H         1 <0>         0.4352
     60 H26       -10.3395  -10.6301    1.8939 H         1 <0>         0.1647
     61 H27        -8.9456  -12.9054    1.9730 H         1 <0>         0.1498
     62 H28        -9.6823  -12.1907    5.8139 H         1 <0>         0.0921
     63 H29       -11.1688  -10.3121    5.5252 H         1 <0>         0.0912
     64 H30       -10.0230   -9.1017    3.7350 H         1 <0>         0.1027
     65 H31        -8.6489   -9.7849    5.5682 H         1 <0>         0.4112
     66 H32       -12.7794  -11.4263    4.1436 H         1 <0>         0.4066
     67 H33       -11.3003  -13.9389    5.7360 H         1 <0>         0.3934
     68 H34        -8.9807  -14.7024    4.7234 H         1 <0>         0.0722
     69 H35       -10.5901  -14.9145    3.9931 H         1 <0>         0.0750
     70 H36        -8.8641  -15.8445    2.6287 H         1 <0>         0.3982
     71 H37        -6.2128   -8.4165   -2.4516 H         1 <0>         0.1079
     72 H38        -4.1297   -7.5620   -3.4484 H         1 <0>         0.1203
     73 H39        -2.1483   -9.0165   -3.5957 H         1 <0>         0.1231
     74 H40        -2.2497  -11.3251   -2.7454 H         1 <0>         0.1239
     75 H41        -4.3303  -12.1769   -1.7411 H         1 <0>         0.1192
     76 H42        -7.8692   -9.4451   -2.2272 H         1 <0>         0.3753
     77 H43        -8.3116   -9.3228    1.9007 H         1 <0>         0.4229
@<TRIPOS>BOND
     1    1    2 1
     2    1   37 1
     3    1   38 1
     4    1   39 1
     5    2    3 1
     6    2   40 1
     7    2   41 1
     8    3    4 1
     9    3   42 1
    10    3   43 1
    11    4    5 1
    12    4   44 1
    13    4   45 1
    14    5    6 1
    15    5   46 1
    16    5   47 1
    17    6    7 1
    18    6   48 1
    19    6   49 1
    20    7    8 1
    21    7   50 1
    22    7   51 1
    23    8    9 1
    24    8   52 1
    25    8   53 1
    26    9   10 1
    27    9   54 1
    28    9   55 1
    29   10   11 2
    30   10   12 am
    31   12   13 1
    32   12   56 1
    33   13   14 1
    34   13   15 1
    35   13   28 1
    36   15   16 1
    37   15   57 1
    38   15   58 1
    39   16   17 1
    40   16   59 1
    41   16   77 1
    42   17   22 1
    43   17   18 1
    44   17   60 1
    45   18   19 2
    46   18   61 1
    47   19   20 1
    48   19   26 1
    49   20   21 1
    50   20   25 1
    51   20   62 1
    52   21   22 1
    53   21   24 1
    54   21   63 1
    55   22   23 1
    56   22   64 1
    57   23   65 1
    58   24   66 1
    59   25   67 1
    60   26   27 1
    61   26   68 1
    62   26   69 1
    63   27   70 1
    64   28   29 1
    65   28   30 1
    66   28   36 1
    67   30   35 ar
    68   30   31 ar
    69   31   32 ar
    70   31   71 1
    71   32   33 ar
    72   32   72 1
    73   33   34 ar
    74   33   73 1
    75   34   35 ar
    76   34   74 1
    77   35   75 1
    78   36   76 1
@<TRIPOS>MOLECULE
CHEMBL59041__31
   76    77     0     0     0
SMALL
USER_CHARGES

@<TRIPOS>ATOM
      1 C1         -0.0187    1.5258    0.0104 C.3       1 <0>        -0.1542
      2 C2          0.0021   -0.0041    0.0020 C.3       1 <0>        -0.1264
      3 C3          0.7182   -0.4975   -1.2568 C.3       1 <0>        -0.1209
      4 C4          0.7390   -2.0273   -1.2652 C.3       1 <0>        -0.1217
      5 C5          1.4551   -2.5207   -2.5240 C.3       1 <0>        -0.1199
      6 C6          1.4758   -4.0506   -2.5324 C.3       1 <0>        -0.1205
      7 C7          2.1920   -4.5440   -3.7912 C.3       1 <0>        -0.1198
      8 C8          2.2127   -6.0738   -3.7996 C.3       1 <0>        -0.1042
      9 C9          2.9289   -6.5673   -5.0584 C.3       1 <0>        -0.1403
     10 C10         2.9493   -8.0741   -5.0667 C.2       1 <0>         0.5048
     11 O1          2.4411   -8.6925   -4.1555 O.2       1 <0>        -0.5271
     12 N1          3.5323   -8.7345   -6.0867 N.am      1 <0>        -0.7176
     13 C11         3.5522  -10.1994   -6.0948 C.3       1 <0>         0.1230
     14 H1          2.6300  -10.5777   -5.6537 H         1 <0>         0.0957
     15 C12         3.6711  -10.6999   -7.5357 C.3       1 <0>         0.0469
     16 N2          2.5886  -10.1243   -8.3449 N.3       1 <0>        -0.6657
     17 C13         2.6710  -10.5839   -9.7377 C.3       1 <0>         0.1325
     18 C14         1.9920  -11.9163   -9.8629 C.2       1 <0>        -0.1367
     19 C15         1.2078  -12.2418  -10.8400 C.2       1 <0>        -0.1570
     20 C16         0.8598  -11.3285  -11.9787 C.3       1 <0>         0.1216
     21 C17         1.8586  -10.1715  -12.0507 C.3       1 <0>         0.0863
     22 C18         1.9938   -9.5595  -10.6508 C.3       1 <0>         0.1285
     23 O2          0.6981   -9.2419  -10.1386 O.3       1 <0>        -0.5440
     24 O3          3.1290  -10.6600  -12.4862 O.3       1 <0>        -0.5502
     25 O4          0.8970  -12.0633  -13.2037 O.3       1 <0>        -0.5639
     26 C19         0.6067  -13.6237  -10.8334 C.3       1 <0>         0.1069
     27 O5          1.0554  -14.3328   -9.6767 O.3       1 <0>        -0.5667
     28 C20         4.7485  -10.6977   -5.2814 C.3       1 <0>         0.1402
     29 H2          5.6706  -10.3194   -5.7225 H         1 <0>         0.0633
     30 C21         4.7689  -12.2045   -5.2897 C.ar      1 <0>        -0.0842
     31 C22         3.9359  -12.9117   -4.4431 C.ar      1 <0>        -0.0882
     32 C23         3.9546  -14.2939   -4.4506 C.ar      1 <0>        -0.1223
     33 C24         4.8060  -14.9689   -5.3052 C.ar      1 <0>        -0.1148
     34 C25         5.6384  -14.2617   -6.1526 C.ar      1 <0>        -0.1212
     35 C26         5.6166  -12.8795   -6.1480 C.ar      1 <0>        -0.1092
     36 O6          4.6374  -10.2302   -3.9356 O.3       1 <0>        -0.5436
     37 H3          1.0039    1.9031    0.0027 H         1 <0>         0.0532
     38 H4         -0.5459    1.8868   -0.8726 H         1 <0>         0.0531
     39 H5         -0.5289    1.8773    0.9072 H         1 <0>         0.0533
     40 H6          0.5293   -0.3651    0.8851 H         1 <0>         0.0604
     41 H7         -1.0205   -0.3814    0.0098 H         1 <0>         0.0603
     42 H8          0.1910   -0.1364   -2.1398 H         1 <0>         0.0603
     43 H9          1.7408   -0.1202   -1.2645 H         1 <0>         0.0604
     44 H10         1.2661   -2.3884   -0.3821 H         1 <0>         0.0609
     45 H11        -0.2836   -2.4046   -1.2575 H         1 <0>         0.0607
     46 H12         0.9279   -2.1597   -3.4071 H         1 <0>         0.0602
     47 H13         2.4777   -2.1435   -2.5317 H         1 <0>         0.0603
     48 H14         2.0030   -4.4117   -1.6494 H         1 <0>         0.0620
     49 H15         0.4533   -4.4279   -2.5247 H         1 <0>         0.0618
     50 H16         1.6648   -4.1829   -4.6743 H         1 <0>         0.0613
     51 H17         3.2146   -4.1667   -3.7990 H         1 <0>         0.0614
     52 H18         2.7399   -6.4349   -2.9166 H         1 <0>         0.0695
     53 H19         1.1901   -6.4511   -3.7919 H         1 <0>         0.0691
     54 H20         2.4017   -6.2062   -5.9415 H         1 <0>         0.0938
     55 H21         3.9515   -6.1900   -5.0662 H         1 <0>         0.0913
     56 H22         3.9388   -8.2400   -6.8155 H         1 <0>         0.4054
     57 H23         4.6335  -10.3962   -7.9476 H         1 <0>         0.0790
     58 H24         3.5966  -11.7872   -7.5499 H         1 <0>         0.0545
     59 H25         1.6865  -10.3378   -7.9464 H         1 <0>         0.3520
     60 H26         3.7180  -10.6859  -10.0231 H         1 <0>         0.1067
     61 H27         2.1689  -12.6494   -9.0898 H         1 <0>         0.1228
     62 H28        -0.1439  -10.9305  -11.8289 H         1 <0>         0.0752
     63 H29         1.4948   -9.4161  -12.7472 H         1 <0>         0.0682
     64 H30         2.6021   -8.6564  -10.7027 H         1 <0>         0.0777
     65 H31         0.2123   -8.5966  -10.6703 H         1 <0>         0.3775
     66 H32         3.1124  -11.0753  -13.3593 H         1 <0>         0.3896
     67 H33         0.2805  -12.8076  -13.2348 H         1 <0>         0.3826
     68 H34        -0.4804  -13.5469  -10.8134 H         1 <0>         0.0538
     69 H35         0.9167  -14.1591  -11.7308 H         1 <0>         0.0574
     70 H36         0.7071  -15.2322   -9.6070 H         1 <0>         0.3838
     71 H37         3.2707  -12.3843   -3.7754 H         1 <0>         0.1276
     72 H38         3.3043  -14.8464   -3.7887 H         1 <0>         0.1225
     73 H39         4.8212  -16.0488   -5.3107 H         1 <0>         0.1215
     74 H40         6.3038  -14.7891   -6.8200 H         1 <0>         0.1230
     75 H41         6.2642  -12.3271   -6.8126 H         1 <0>         0.1208
     76 H42         4.6184   -9.2668   -3.8542 H         1 <0>         0.3752
@<TRIPOS>BOND
     1    1    2 1
     2    1   37 1
     3    1   38 1
     4    1   39 1
     5    2    3 1
     6    2   40 1
     7    2   41 1
     8    3    4 1
     9    3   42 1
    10    3   43 1
    11    4    5 1
    12    4   44 1
    13    4   45 1
    14    5    6 1
    15    5   46 1
    16    5   47 1
    17    6    7 1
    18    6   48 1
    19    6   49 1
    20    7    8 1
    21    7   50 1
    22    7   51 1
    23    8    9 1
    24    8   52 1
    25    8   53 1
    26    9   10 1
    27    9   54 1
    28    9   55 1
    29   10   11 2
    30   10   12 am
    31   12   13 1
    32   12   56 1
    33   13   14 1
    34   13   15 1
    35   13   28 1
    36   15   16 1
    37   15   57 1
    38   15   58 1
    39   16   17 1
    40   16   59 1
    41   17   22 1
    42   17   18 1
    43   17   60 1
    44   18   19 2
    45   18   61 1
    46   19   20 1
    47   19   26 1
    48   20   21 1
    49   20   25 1
    50   20   62 1
    51   21   22 1
    52   21   24 1
    53   21   63 1
    54   22   23 1
    55   22   64 1
    56   23   65 1
    57   24   66 1
    58   25   67 1
    59   26   27 1
    60   26   68 1
    61   26   69 1
    62   27   70 1
    63   28   29 1
    64   28   30 1
    65   28   36 1
    66   30   35 ar
    67   30   31 ar
    68   31   32 ar
    69   31   71 1
    70   32   33 ar
    71   32   72 1
    72   33   34 ar
    73   33   73 1
    74   34   35 ar
    75   34   74 1
    76   35   75 1
    77   36   76 1
@<TRIPOS>MOLECULE
CHEMBL325028
   28    29     0     0     0
SMALL
USER_CHARGES

@<TRIPOS>ATOM
      1 C1          0.0006    1.5512    0.0238 C.3       1 <0>        -0.1230
      2 C2          1.4740    1.9953   -0.0151 C.3       1 <0>        -0.1548
      3 C3          2.3158    0.6986   -0.0376 C.3       1 <0>         0.1302
      4 C4          1.3590   -0.3480   -0.6673 C.3       1 <0>         0.0322
      5 C5          0.0151    0.0051    0.0231 C.3       1 <0>        -0.0989
      6 C6          0.1359   -0.4552    1.4864 C.3       1 <0>        -0.1727
      7 C7          1.2161    0.3750    2.1825 C.3       1 <0>         0.0579
      8 C8          2.5400    0.2697    1.4231 C.3       1 <0>         0.0810
      9 O1          3.5088    1.1272    2.0298 O.3       1 <0>        -0.5456
     10 O2          1.3963   -0.1062    3.5160 O.3       1 <0>        -0.5634
     11 N1          1.7799   -1.7150   -0.3326 N.4       1 <0>        -0.6366
     12 O3          3.5404    0.8500   -0.7582 O.3       1 <0>        -0.5372
     13 H1         -0.4783    1.9209    0.9305 H         1 <0>         0.0920
     14 H2         -0.5257    1.9213   -0.8560 H         1 <0>         0.0925
     15 H3          1.6649    2.5816   -0.9140 H         1 <0>         0.0968
     16 H4          1.7122    2.5813    0.8725 H         1 <0>         0.0981
     17 H5          1.2904   -0.2151   -1.7470 H         1 <0>         0.1682
     18 H6         -0.8462   -0.4225   -0.4903 H         1 <0>         0.1303
     19 H7         -0.8180   -0.3115    1.9939 H         1 <0>         0.1089
     20 H8          0.4108   -1.5095    1.5156 H         1 <0>         0.0692
     21 H9          0.9025    1.4183    2.2177 H         1 <0>         0.0920
     22 H10         2.8950   -0.7606    1.4502 H         1 <0>         0.0536
     23 H11         3.6994    0.9136    2.9535 H         1 <0>         0.4052
     24 H12         0.6003   -0.0571    4.0628 H         1 <0>         0.3986
     25 H13         1.8366   -1.8135    0.6699 H         1 <0>         0.4296
     26 H14         1.1075   -2.3728   -0.6978 H         1 <0>         0.4392
     27 H15         4.1363    1.5144   -0.3859 H         1 <0>         0.4138
     28 H16         2.6846   -1.8976   -0.7403 H         1 <0>         0.4428
@<TRIPOS>BOND
     1    1    5 1
     2    1    2 1
     3    1   13 1
     4    1   14 1
     5    2    3 1
     6    2   15 1
     7    2   16 1
     8    3    8 1
     9    3    4 1
    10    3   12 1
    11    4    5 1
    12    4   11 1
    13    4   17 1
    14    5    6 1
    15    5   18 1
    16    6    7 1
    17    6   19 1
    18    6   20 1
    19    7    8 1
    20    7   10 1
    21    7   21 1
    22    8    9 1
    23    8   22 1
    24    9   23 1
    25   10   24 1
    26   11   25 1
    27   11   26 1
    28   11   28 1
    29   12   27 1
@<TRIPOS>MOLECULE
CHEMBL325028__1
   28    29     0     0     0
SMALL
USER_CHARGES

@<TRIPOS>ATOM
      1 C1          0.3150    1.6848    0.1740 C.3       1 <0>        -0.1230
      2 C2          1.7526    2.0207   -0.2620 C.3       1 <0>        -0.1558
      3 C3          2.4948    0.6696   -0.3814 C.3       1 <0>         0.1315
      4 C4          1.3590   -0.3480   -0.6673 C.3       1 <0>         0.0374
      5 C5          0.2500    0.1451    0.2994 C.3       1 <0>        -0.0998
      6 C6          0.7089   -0.2211    1.7217 C.3       1 <0>        -0.1689
      7 C7          1.9697    0.5770    2.0596 C.3       1 <0>         0.0640
      8 C8          3.0547    0.3271    1.0104 C.3       1 <0>         0.0755
      9 O1          3.4448   -1.0472    1.0438 O.3       1 <0>        -0.5872
     10 O2          2.4526    0.1769    3.3437 O.3       1 <0>        -0.5634
     11 N1          1.7799   -1.7150   -0.3326 N.4       1 <0>        -0.6200
     12 O3          3.5067    0.6849   -1.3903 O.3       1 <0>        -0.5339
     13 H1          0.0973    2.1485    1.1361 H         1 <0>         0.0919
     14 H2         -0.3948    2.0297   -0.5778 H         1 <0>         0.0929
     15 H3          1.7425    2.5290   -1.2262 H         1 <0>         0.1021
     16 H4          2.2346    2.6480    0.4878 H         1 <0>         0.0931
     17 H5          1.0297   -0.2850   -1.7045 H         1 <0>         0.1568
     18 H6         -0.7328   -0.2552    0.0505 H         1 <0>         0.1272
     19 H7         -0.0794    0.0236    2.4336 H         1 <0>         0.1052
     20 H8          0.9283   -1.2877    1.7709 H         1 <0>         0.0728
     21 H9          1.7284    1.6397    2.0830 H         1 <0>         0.0895
     22 H10         3.9182    0.9579    1.2214 H         1 <0>         0.0959
     23 H11         3.8076   -1.3325    1.8936 H         1 <0>         0.4158
     24 H12         1.8219    0.3191    4.0629 H         1 <0>         0.3993
     25 H13         1.8366   -1.8135    0.6699 H         1 <0>         0.4297
     26 H14         1.1075   -2.3728   -0.6978 H         1 <0>         0.4233
     27 H15         4.2098    1.3298   -1.2325 H         1 <0>         0.4057
     28 H16         2.6846   -1.8976   -0.7403 H         1 <0>         0.4422
@<TRIPOS>BOND
     1    1    5 1
     2    1    2 1
     3    1   13 1
     4    1   14 1
     5    2    3 1
     6    2   15 1
     7    2   16 1
     8    3    8 1
     9    3    4 1
    10    3   12 1
    11    4    5 1
    12    4   11 1
    13    4   17 1
    14    5    6 1
    15    5   18 1
    16    6    7 1
    17    6   19 1
    18    6   20 1
    19    7    8 1
    20    7   10 1
    21    7   21 1
    22    8    9 1
    23    8   22 1
    24    9   23 1
    25   10   24 1
    26   11   25 1
    27   11   26 1
    28   11   28 1
    29   12   27 1
@<TRIPOS>MOLECULE
CHEMBL325028__2
   28    29     0     0     0
SMALL
USER_CHARGES

@<TRIPOS>ATOM
      1 C1          0.0006    1.5512    0.0238 C.3       1 <0>        -0.1148
      2 C2          1.4740    1.9953   -0.0151 C.3       1 <0>        -0.1412
      3 C3          2.3158    0.6986   -0.0376 C.3       1 <0>         0.1281
      4 C4          1.3590   -0.3480   -0.6673 C.3       1 <0>         0.0298
      5 C5          0.0151    0.0051    0.0231 C.3       1 <0>        -0.1003
      6 C6          0.1359   -0.4552    1.4864 C.3       1 <0>        -0.1722
      7 C7          1.2161    0.3750    2.1825 C.3       1 <0>         0.0654
      8 C8          2.5400    0.2697    1.4231 C.3       1 <0>         0.0780
      9 O1          3.5088    1.1272    2.0298 O.3       1 <0>        -0.5377
     10 O2          0.8049    1.7428    2.2286 O.3       1 <0>        -0.5312
     11 N1          1.7799   -1.7150   -0.3326 N.4       1 <0>        -0.6363
     12 O3          3.5404    0.8500   -0.7582 O.3       1 <0>        -0.5439
     13 H1         -0.4783    1.9209    0.9305 H         1 <0>         0.1070
     14 H2         -0.5257    1.9213   -0.8560 H         1 <0>         0.0729
     15 H3          1.6649    2.5816   -0.9140 H         1 <0>         0.0776
     16 H4          1.7122    2.5813    0.8725 H         1 <0>         0.1243
     17 H5          1.2904   -0.2151   -1.7470 H         1 <0>         0.1644
     18 H6         -0.8462   -0.4225   -0.4903 H         1 <0>         0.1230
     19 H7         -0.8180   -0.3115    1.9939 H         1 <0>         0.1090
     20 H8          0.4108   -1.5095    1.5156 H         1 <0>         0.0673
     21 H9          1.3536    0.0080    3.1996 H         1 <0>         0.0779
     22 H10         2.8950   -0.7606    1.4502 H         1 <0>         0.0561
     23 H11         3.6994    0.9136    2.9535 H         1 <0>         0.3970
     24 H12        -0.0222    1.8889    2.7078 H         1 <0>         0.3814
     25 H13         1.8366   -1.8135    0.6699 H         1 <0>         0.4259
     26 H14         1.1075   -2.3728   -0.6978 H         1 <0>         0.4384
     27 H15         4.1363    1.5144   -0.3859 H         1 <0>         0.4122
     28 H16         2.6846   -1.8976   -0.7403 H         1 <0>         0.4419
@<TRIPOS>BOND
     1    1    5 1
     2    1    2 1
     3    1   13 1
     4    1   14 1
     5    2    3 1
     6    2   15 1
     7    2   16 1
     8    3    8 1
     9    3    4 1
    10    3   12 1
    11    4    5 1
    12    4   11 1
    13    4   17 1
    14    5    6 1
    15    5   18 1
    16    6    7 1
    17    6   19 1
    18    6   20 1
    19    7    8 1
    20    7   10 1
    21    7   21 1
    22    8    9 1
    23    8   22 1
    24    9   23 1
    25   10   24 1
    26   11   25 1
    27   11   26 1
    28   11   28 1
    29   12   27 1
@<TRIPOS>MOLECULE
CHEMBL325028__3
   28    29     0     0     0
SMALL
USER_CHARGES

@<TRIPOS>ATOM
      1 C1          0.3150    1.6847    0.1740 C.3       1 <0>        -0.1145
      2 C2          1.7526    2.0207   -0.2620 C.3       1 <0>        -0.1424
      3 C3          2.4948    0.6696   -0.3814 C.3       1 <0>         0.1315
      4 C4          1.3590   -0.3480   -0.6673 C.3       1 <0>         0.0349
      5 C5          0.2500    0.1451    0.2994 C.3       1 <0>        -0.1011
      6 C6          0.7089   -0.2211    1.7217 C.3       1 <0>        -0.1687
      7 C7          1.9697    0.5769    2.0596 C.3       1 <0>         0.0723
      8 C8          3.0547    0.3271    1.0104 C.3       1 <0>         0.0707
      9 O1          3.4447   -1.0472    1.0439 O.3       1 <0>        -0.5844
     10 O2          1.6533    1.9702    2.0903 O.3       1 <0>        -0.5403
     11 N1          1.7799   -1.7150   -0.3326 N.4       1 <0>        -0.6202
     12 O3          3.5067    0.6849   -1.3903 O.3       1 <0>        -0.5404
     13 H1          0.0973    2.1485    1.1361 H         1 <0>         0.1065
     14 H2         -0.3948    2.0297   -0.5779 H         1 <0>         0.0737
     15 H3          1.7425    2.5290   -1.2262 H         1 <0>         0.0844
     16 H4          2.2346    2.6480    0.4878 H         1 <0>         0.1181
     17 H5          1.0297   -0.2850   -1.7045 H         1 <0>         0.1535
     18 H6         -0.7329   -0.2552    0.0504 H         1 <0>         0.1202
     19 H7         -0.0794    0.0236    2.4336 H         1 <0>         0.1057
     20 H8          0.9283   -1.2877    1.7709 H         1 <0>         0.0711
     21 H9          2.3380    0.2718    3.0391 H         1 <0>         0.0786
     22 H10         3.9182    0.9579    1.2214 H         1 <0>         0.0987
     23 H11         3.8076   -1.3325    1.8936 H         1 <0>         0.4096
     24 H12         0.9808    2.2065    2.7436 H         1 <0>         0.3875
     25 H13         1.8366   -1.8135    0.6699 H         1 <0>         0.4268
     26 H14         1.1075   -2.3728   -0.6978 H         1 <0>         0.4228
     27 H15         4.2098    1.3298   -1.2325 H         1 <0>         0.4043
     28 H16         2.6846   -1.8976   -0.7403 H         1 <0>         0.4412
@<TRIPOS>BOND
     1    1    5 1
     2    1    2 1
     3    1   13 1
     4    1   14 1
     5    2    3 1
     6    2   15 1
     7    2   16 1
     8    3    8 1
     9    3    4 1
    10    3   12 1
    11    4    5 1
    12    4   11 1
    13    4   17 1
    14    5    6 1
    15    5   18 1
    16    6    7 1
    17    6   19 1
    18    6   20 1
    19    7    8 1
    20    7   10 1
    21    7   21 1
    22    8    9 1
    23    8   22 1
    24    9   23 1
    25   10   24 1
    26   11   25 1
    27   11   26 1
    28   11   28 1
    29   12   27 1
@<TRIPOS>MOLECULE
CHEMBL325028__4
   28    29     0     0     0
SMALL
USER_CHARGES

@<TRIPOS>ATOM
      1 C1         -0.0189    1.5419    0.0105 C.3       1 <0>        -0.1418
      2 C2          1.4530    1.9923   -0.0011 C.3       1 <0>        -0.1721
      3 C3          2.3006    0.6992   -0.0160 C.3       1 <0>         0.1307
      4 C4          1.3590   -0.3480   -0.6673 C.3       1 <0>         0.0314
      5 C5          0.0021   -0.0041    0.0020 C.3       1 <0>        -0.1000
      6 C6          0.1000   -0.4715    1.4648 C.3       1 <0>        -0.1523
      7 C7          1.1648    0.3594    2.1834 C.3       1 <0>         0.0653
      8 C8          2.5018    0.2635    1.4460 C.3       1 <0>         0.0955
      9 O1          3.4565    1.1218    2.0736 O.3       1 <0>        -0.5573
     10 O2          1.3244   -0.1280    3.5172 O.3       1 <0>        -0.5617
     11 N1          1.2905   -0.1616   -2.1228 N.4       1 <0>        -0.6233
     12 O3          3.5366    0.8595   -0.7150 O.3       1 <0>        -0.5475
     13 H1         -0.5146    1.9049    0.9108 H         1 <0>         0.0971
     14 H2         -0.5317    1.9145   -0.8762 H         1 <0>         0.0846
     15 H3          1.6567    2.5840   -0.8936 H         1 <0>         0.0888
     16 H4          1.6737    2.5746    0.8935 H         1 <0>         0.1032
     17 H5          1.6713   -1.3623   -0.4190 H         1 <0>         0.1573
     18 H6         -0.8485   -0.4324   -0.5282 H         1 <0>         0.1242
     19 H7         -0.8630   -0.3344    1.9567 H         1 <0>         0.0974
     20 H8          0.3788   -1.5249    1.4931 H         1 <0>         0.0896
     21 H9          0.8462    1.4012    2.2187 H         1 <0>         0.0788
     22 H10         2.8606   -0.7654    1.4738 H         1 <0>         0.0773
     23 H11         3.6324    0.9042    2.9992 H         1 <0>         0.4052
     24 H12         0.5189   -0.0851    4.0506 H         1 <0>         0.3947
     25 H13         2.2127   -0.2653   -2.5189 H         1 <0>         0.4450
     26 H14         0.6735   -0.8531   -2.5218 H         1 <0>         0.4383
     27 H15         4.1233    1.5243   -0.3291 H         1 <0>         0.4181
     28 H16         0.9384    0.7615   -2.3275 H         1 <0>         0.4335
@<TRIPOS>BOND
     1    1    5 1
     2    1    2 1
     3    1   13 1
     4    1   14 1
     5    2    3 1
     6    2   15 1
     7    2   16 1
     8    3    8 1
     9    3    4 1
    10    3   12 1
    11    4    5 1
    12    4   11 1
    13    4   17 1
    14    5    6 1
    15    5   18 1
    16    6    7 1
    17    6   19 1
    18    6   20 1
    19    7    8 1
    20    7   10 1
    21    7   21 1
    22    8    9 1
    23    8   22 1
    24    9   23 1
    25   10   24 1
    26   11   25 1
    27   11   26 1
    28   11   28 1
    29   12   27 1
@<TRIPOS>MOLECULE
CHEMBL325028__5
   28    29     0     0     0
SMALL
USER_CHARGES

@<TRIPOS>ATOM
      1 C1         -0.0189    1.5419    0.0105 C.3       1 <0>        -0.1419
      2 C2          1.4530    1.9923   -0.0011 C.3       1 <0>        -0.1737
      3 C3          2.3006    0.6992   -0.0160 C.3       1 <0>         0.1308
      4 C4          1.3590   -0.3480   -0.6673 C.3       1 <0>         0.0349
      5 C5          0.0021   -0.0041    0.0020 C.3       1 <0>        -0.0993
      6 C6          0.1000   -0.4715    1.4648 C.3       1 <0>        -0.1485
      7 C7          1.1648    0.3594    2.1834 C.3       1 <0>         0.0671
      8 C8          2.5018    0.2635    1.4460 C.3       1 <0>         0.0937
      9 O1          2.9722   -1.0854    1.4824 O.3       1 <0>        -0.5573
     10 O2          1.3244   -0.1280    3.5172 O.3       1 <0>        -0.5616
     11 N1          1.2905   -0.1616   -2.1228 N.4       1 <0>        -0.6260
     12 O3          3.5366    0.8595   -0.7150 O.3       1 <0>        -0.5443
     13 H1         -0.5146    1.9049    0.9108 H         1 <0>         0.0975
     14 H2         -0.5317    1.9145   -0.8762 H         1 <0>         0.0852
     15 H3          1.6567    2.5840   -0.8936 H         1 <0>         0.0944
     16 H4          1.6737    2.5746    0.8935 H         1 <0>         0.0987
     17 H5          1.6713   -1.3623   -0.4190 H         1 <0>         0.1664
     18 H6         -0.8485   -0.4324   -0.5282 H         1 <0>         0.1220
     19 H7         -0.8630   -0.3344    1.9567 H         1 <0>         0.0925
     20 H8          0.3788   -1.5249    1.4931 H         1 <0>         0.0930
     21 H9          0.8462    1.4012    2.2187 H         1 <0>         0.0759
     22 H10         3.2301    0.9182    1.9247 H         1 <0>         0.0822
     23 H11         3.1210   -1.4260    2.3751 H         1 <0>         0.4019
     24 H12         0.5189   -0.0851    4.0506 H         1 <0>         0.3952
     25 H13         2.2127   -0.2653   -2.5189 H         1 <0>         0.4442
     26 H14         0.6735   -0.8531   -2.5218 H         1 <0>         0.4367
     27 H15         4.1233    1.5243   -0.3291 H         1 <0>         0.4101
     28 H16         0.9384    0.7615   -2.3275 H         1 <0>         0.4302
@<TRIPOS>BOND
     1    1    5 1
     2    1    2 1
     3    1   13 1
     4    1   14 1
     5    2    3 1
     6    2   15 1
     7    2   16 1
     8    3    8 1
     9    3    4 1
    10    3   12 1
    11    4    5 1
    12    4   11 1
    13    4   17 1
    14    5    6 1
    15    5   18 1
    16    6    7 1
    17    6   19 1
    18    6   20 1
    19    7    8 1
    20    7   10 1
    21    7   21 1
    22    8    9 1
    23    8   22 1
    24    9   23 1
    25   10   24 1
    26   11   25 1
    27   11   26 1
    28   11   28 1
    29   12   27 1
@<TRIPOS>MOLECULE
CHEMBL325028__6
   28    29     0     0     0
SMALL
USER_CHARGES

@<TRIPOS>ATOM
      1 C1         -0.0189    1.5419    0.0105 C.3       1 <0>        -0.1333
      2 C2          1.4530    1.9923   -0.0011 C.3       1 <0>        -0.1579
      3 C3          2.3006    0.6992   -0.0160 C.3       1 <0>         0.1269
      4 C4          1.3590   -0.3480   -0.6673 C.3       1 <0>         0.0298
      5 C5          0.0021   -0.0041    0.0020 C.3       1 <0>        -0.1025
      6 C6          0.1000   -0.4715    1.4648 C.3       1 <0>        -0.1497
      7 C7          1.1648    0.3594    2.1834 C.3       1 <0>         0.0672
      8 C8          2.5018    0.2635    1.4460 C.3       1 <0>         0.0958
      9 O1          3.4565    1.1218    2.0736 O.3       1 <0>        -0.5496
     10 O2          0.7471    1.7252    2.2296 O.3       1 <0>        -0.5404
     11 N1          1.2905   -0.1616   -2.1228 N.4       1 <0>        -0.6231
     12 O3          3.5366    0.8595   -0.7150 O.3       1 <0>        -0.5541
     13 H1         -0.5146    1.9049    0.9108 H         1 <0>         0.1123
     14 H2         -0.5317    1.9145   -0.8762 H         1 <0>         0.0644
     15 H3          1.6567    2.5840   -0.8936 H         1 <0>         0.0691
     16 H4          1.6737    2.5746    0.8935 H         1 <0>         0.1291
     17 H5          1.6713   -1.3623   -0.4190 H         1 <0>         0.1519
     18 H6         -0.8485   -0.4324   -0.5282 H         1 <0>         0.1169
     19 H7         -0.8630   -0.3344    1.9567 H         1 <0>         0.0977
     20 H8          0.3788   -1.5249    1.4931 H         1 <0>         0.0877
     21 H9          1.2865   -0.0124    3.2008 H         1 <0>         0.0756
     22 H10         2.8606   -0.7654    1.4738 H         1 <0>         0.0801
     23 H11         3.6324    0.9042    2.9992 H         1 <0>         0.3972
     24 H12        -0.0886    1.8654    2.6955 H         1 <0>         0.3783
     25 H13         2.2127   -0.2653   -2.5189 H         1 <0>         0.4436
     26 H14         0.6735   -0.8531   -2.5218 H         1 <0>         0.4365
     27 H15         4.1233    1.5243   -0.3291 H         1 <0>         0.4165
     28 H16         0.9384    0.7615   -2.3275 H         1 <0>         0.4340
@<TRIPOS>BOND
     1    1    5 1
     2    1    2 1
     3    1   13 1
     4    1   14 1
     5    2    3 1
     6    2   15 1
     7    2   16 1
     8    3    8 1
     9    3    4 1
    10    3   12 1
    11    4    5 1
    12    4   11 1
    13    4   17 1
    14    5    6 1
    15    5   18 1
    16    6    7 1
    17    6   19 1
    18    6   20 1
    19    7    8 1
    20    7   10 1
    21    7   21 1
    22    8    9 1
    23    8   22 1
    24    9   23 1
    25   10   24 1
    26   11   25 1
    27   11   26 1
    28   11   28 1
    29   12   27 1
@<TRIPOS>MOLECULE
CHEMBL325028__7
   28    29     0     0     0
SMALL
USER_CHARGES

@<TRIPOS>ATOM
      1 C1         -0.0189    1.5419    0.0105 C.3       1 <0>        -0.1330
      2 C2          1.4530    1.9923   -0.0011 C.3       1 <0>        -0.1600
      3 C3          2.3006    0.6992   -0.0160 C.3       1 <0>         0.1298
      4 C4          1.3590   -0.3480   -0.6673 C.3       1 <0>         0.0331
      5 C5          0.0021   -0.0041    0.0020 C.3       1 <0>        -0.1019
      6 C6          0.1000   -0.4715    1.4648 C.3       1 <0>        -0.1463
      7 C7          1.1648    0.3594    2.1834 C.3       1 <0>         0.0700
      8 C8          2.5018    0.2635    1.4460 C.3       1 <0>         0.0920
      9 O1          2.9722   -1.0854    1.4824 O.3       1 <0>        -0.5544
     10 O2          0.7471    1.7252    2.2296 O.3       1 <0>        -0.5494
     11 N1          1.2905   -0.1616   -2.1228 N.4       1 <0>        -0.6258
     12 O3          3.5366    0.8595   -0.7150 O.3       1 <0>        -0.5506
     13 H1         -0.5146    1.9049    0.9108 H         1 <0>         0.1123
     14 H2         -0.5317    1.9145   -0.8762 H         1 <0>         0.0656
     15 H3          1.6567    2.5840   -0.8936 H         1 <0>         0.0762
     16 H4          1.6737    2.5746    0.8935 H         1 <0>         0.1236
     17 H5          1.6713   -1.3623   -0.4190 H         1 <0>         0.1610
     18 H6         -0.8485   -0.4324   -0.5282 H         1 <0>         0.1151
     19 H7         -0.8630   -0.3344    1.9567 H         1 <0>         0.0932
     20 H8          0.3788   -1.5249    1.4931 H         1 <0>         0.0912
     21 H9          1.2865   -0.0124    3.2008 H         1 <0>         0.0758
     22 H10         3.2301    0.9182    1.9247 H         1 <0>         0.0852
     23 H11         3.1210   -1.4260    2.3751 H         1 <0>         0.3958
     24 H12        -0.0886    1.8654    2.6955 H         1 <0>         0.3842
     25 H13         2.2127   -0.2653   -2.5189 H         1 <0>         0.4428
     26 H14         0.6735   -0.8531   -2.5218 H         1 <0>         0.4350
     27 H15         4.1233    1.5243   -0.3291 H         1 <0>         0.4086
     28 H16         0.9384    0.7615   -2.3275 H         1 <0>         0.4309
@<TRIPOS>BOND
     1    1    5 1
     2    1    2 1
     3    1   13 1
     4    1   14 1
     5    2    3 1
     6    2   15 1
     7    2   16 1
     8    3    8 1
     9    3    4 1
    10    3   12 1
    11    4    5 1
    12    4   11 1
    13    4   17 1
    14    5    6 1
    15    5   18 1
    16    6    7 1
    17    6   19 1
    18    6   20 1
    19    7    8 1
    20    7   10 1
    21    7   21 1
    22    8    9 1
    23    8   22 1
    24    9   23 1
    25   10   24 1
    26   11   25 1
    27   11   26 1
    28   11   28 1
    29   12   27 1
@<TRIPOS>MOLECULE
CHEMBL325028__8
   28    29     0     0     0
SMALL
USER_CHARGES

@<TRIPOS>ATOM
      1 C1         -0.0189    1.5419    0.0105 C.3       1 <0>        -0.1330
      2 C2          1.4530    1.9923   -0.0011 C.3       1 <0>        -0.1600
      3 C3          2.3005    0.6992   -0.0163 C.3       1 <0>         0.1298
      4 C4          1.3715   -0.3550    0.6416 C.3       1 <0>         0.0331
      5 C5          0.0021   -0.0041    0.0020 C.3       1 <0>        -0.1019
      6 C6          0.0720   -0.4558   -1.4673 C.3       1 <0>        -0.1462
      7 C7          1.1229    0.3829   -2.1971 C.3       1 <0>         0.0700
      8 C8          2.4738    0.2793   -1.4865 C.3       1 <0>         0.0920
      9 O1          2.9433   -1.0691   -1.5463 O.3       1 <0>        -0.5544
     10 O2          0.7046    1.7491   -2.2207 O.3       1 <0>        -0.5494
     11 N1          1.3309   -0.1843    2.1001 N.4       1 <0>        -0.6258
     12 O3          3.5497    0.8521    0.6606 O.3       1 <0>        -0.5506
     13 H1         -0.5146    1.9049    0.9108 H         1 <0>         0.0656
     14 H2         -0.5317    1.9145   -0.8762 H         1 <0>         0.1123
     15 H3          1.6567    2.5842   -0.8935 H         1 <0>         0.1236
     16 H4          1.6738    2.5744    0.8936 H         1 <0>         0.0762
     17 H5          1.6789   -1.3666    0.3765 H         1 <0>         0.1610
     18 H6         -0.8383   -0.4382    0.5437 H         1 <0>         0.1151
     19 H7          0.3501   -1.5087   -1.5122 H         1 <0>         0.0912
     20 H8         -0.9002   -0.3135   -1.9392 H         1 <0>         0.0932
     21 H9          1.2252    0.0221   -3.2206 H         1 <0>         0.0758
     22 H10         3.1928    0.9391   -1.9719 H         1 <0>         0.0852
     23 H11         3.0750   -1.4001   -2.4453 H         1 <0>         0.3958
     24 H12        -0.1398    1.8943   -2.6690 H         1 <0>         0.3842
     25 H13         0.9828    0.7366    2.3213 H         1 <0>         0.4309
     26 H14         0.7215   -0.8801    2.5033 H         1 <0>         0.4350
     27 H15         4.1290    1.5211    0.2708 H         1 <0>         0.4086
     28 H16         2.2605   -0.2921    2.4773 H         1 <0>         0.4428
@<TRIPOS>BOND
     1    1    5 1
     2    1    2 1
     3    1   13 1
     4    1   14 1
     5    2    3 1
     6    2   15 1
     7    2   16 1
     8    3    8 1
     9    3    4 1
    10    3   12 1
    11    4    5 1
    12    4   11 1
    13    4   17 1
    14    5    6 1
    15    5   18 1
    16    6    7 1
    17    6   19 1
    18    6   20 1
    19    7    8 1
    20    7   10 1
    21    7   21 1
    22    8    9 1
    23    8   22 1
    24    9   23 1
    25   10   24 1
    26   11   25 1
    27   11   26 1
    28   11   28 1
    29   12   27 1
@<TRIPOS>MOLECULE
CHEMBL325028__9
   28    29     0     0     0
SMALL
USER_CHARGES

@<TRIPOS>ATOM
      1 C1         -0.0189    1.5419    0.0105 C.3       1 <0>        -0.1333
      2 C2          1.4530    1.9923   -0.0011 C.3       1 <0>        -0.1579
      3 C3          2.3005    0.6992   -0.0163 C.3       1 <0>         0.1269
      4 C4          1.3715   -0.3550    0.6416 C.3       1 <0>         0.0298
      5 C5          0.0021   -0.0041    0.0020 C.3       1 <0>        -0.1025
      6 C6          0.0720   -0.4558   -1.4673 C.3       1 <0>        -0.1497
      7 C7          1.1229    0.3829   -2.1971 C.3       1 <0>         0.0672
      8 C8          2.4738    0.2793   -1.4865 C.3       1 <0>         0.0958
      9 O1          3.4165    1.1443   -2.1229 O.3       1 <0>        -0.5496
     10 O2          0.7046    1.7491   -2.2207 O.3       1 <0>        -0.5405
     11 N1          1.3309   -0.1843    2.1001 N.4       1 <0>        -0.6231
     12 O3          3.5497    0.8521    0.6606 O.3       1 <0>        -0.5541
     13 H1         -0.5146    1.9049    0.9108 H         1 <0>         0.0644
     14 H2         -0.5317    1.9145   -0.8762 H         1 <0>         0.1123
     15 H3          1.6567    2.5842   -0.8935 H         1 <0>         0.1291
     16 H4          1.6738    2.5744    0.8936 H         1 <0>         0.0691
     17 H5          1.6789   -1.3666    0.3765 H         1 <0>         0.1519
     18 H6         -0.8383   -0.4382    0.5437 H         1 <0>         0.1169
     19 H7          0.3501   -1.5087   -1.5122 H         1 <0>         0.0878
     20 H8         -0.9002   -0.3135   -1.9392 H         1 <0>         0.0977
     21 H9          1.2252    0.0221   -3.2206 H         1 <0>         0.0756
     22 H10         2.8319   -0.7492   -1.5321 H         1 <0>         0.0801
     23 H11         3.5746    0.9367   -3.0540 H         1 <0>         0.3972
     24 H12        -0.1398    1.8943   -2.6690 H         1 <0>         0.3783
     25 H13         0.9828    0.7366    2.3213 H         1 <0>         0.4340
     26 H14         0.7215   -0.8801    2.5033 H         1 <0>         0.4365
     27 H15         4.1290    1.5211    0.2708 H         1 <0>         0.4165
     28 H16         2.2605   -0.2921    2.4773 H         1 <0>         0.4436
@<TRIPOS>BOND
     1    1    5 1
     2    1    2 1
     3    1   13 1
     4    1   14 1
     5    2    3 1
     6    2   15 1
     7    2   16 1
     8    3    8 1
     9    3    4 1
    10    3   12 1
    11    4    5 1
    12    4   11 1
    13    4   17 1
    14    5    6 1
    15    5   18 1
    16    6    7 1
    17    6   19 1
    18    6   20 1
    19    7    8 1
    20    7   10 1
    21    7   21 1
    22    8    9 1
    23    8   22 1
    24    9   23 1
    25   10   24 1
    26   11   25 1
    27   11   26 1
    28   11   28 1
    29   12   27 1
@<TRIPOS>MOLECULE
CHEMBL325028__10
   28    29     0     0     0
SMALL
USER_CHARGES

@<TRIPOS>ATOM
      1 C1         -0.0189    1.5419    0.0105 C.3       1 <0>        -0.1419
      2 C2          1.4530    1.9923   -0.0011 C.3       1 <0>        -0.1737
      3 C3          2.3005    0.6992   -0.0163 C.3       1 <0>         0.1308
      4 C4          1.3715   -0.3550    0.6416 C.3       1 <0>         0.0348
      5 C5          0.0021   -0.0041    0.0020 C.3       1 <0>        -0.0993
      6 C6          0.0720   -0.4558   -1.4673 C.3       1 <0>        -0.1485
      7 C7          1.1229    0.3829   -2.1971 C.3       1 <0>         0.0671
      8 C8          2.4738    0.2793   -1.4865 C.3       1 <0>         0.0937
      9 O1          2.9433   -1.0691   -1.5463 O.3       1 <0>        -0.5574
     10 O2          1.2570   -0.0901   -3.5389 O.3       1 <0>        -0.5616
     11 N1          1.3309   -0.1843    2.1001 N.4       1 <0>        -0.6260
     12 O3          3.5497    0.8521    0.6606 O.3       1 <0>        -0.5443
     13 H1         -0.5146    1.9049    0.9108 H         1 <0>         0.0852
     14 H2         -0.5317    1.9145   -0.8762 H         1 <0>         0.0975
     15 H3          1.6567    2.5842   -0.8935 H         1 <0>         0.0987
     16 H4          1.6738    2.5744    0.8936 H         1 <0>         0.0944
     17 H5          1.6789   -1.3666    0.3765 H         1 <0>         0.1664
     18 H6         -0.8383   -0.4382    0.5437 H         1 <0>         0.1220
     19 H7          0.3501   -1.5087   -1.5122 H         1 <0>         0.0930
     20 H8         -0.9002   -0.3135   -1.9392 H         1 <0>         0.0925
     21 H9          0.8039    1.4250   -2.2151 H         1 <0>         0.0759
     22 H10         3.1928    0.9391   -1.9719 H         1 <0>         0.0822
     23 H11         3.0750   -1.4001   -2.4453 H         1 <0>         0.4019
     24 H12         0.4415   -0.0416   -4.0564 H         1 <0>         0.3952
     25 H13         0.9828    0.7366    2.3213 H         1 <0>         0.4303
     26 H14         0.7215   -0.8801    2.5033 H         1 <0>         0.4367
     27 H15         4.1290    1.5211    0.2708 H         1 <0>         0.4101
     28 H16         2.2605   -0.2921    2.4773 H         1 <0>         0.4442
@<TRIPOS>BOND
     1    1    5 1
     2    1    2 1
     3    1   13 1
     4    1   14 1
     5    2    3 1
     6    2   15 1
     7    2   16 1
     8    3    8 1
     9    3    4 1
    10    3   12 1
    11    4    5 1
    12    4   11 1
    13    4   17 1
    14    5    6 1
    15    5   18 1
    16    6    7 1
    17    6   19 1
    18    6   20 1
    19    7    8 1
    20    7   10 1
    21    7   21 1
    22    8    9 1
    23    8   22 1
    24    9   23 1
    25   10   24 1
    26   11   25 1
    27   11   26 1
    28   11   28 1
    29   12   27 1
@<TRIPOS>MOLECULE
CHEMBL325028__11
   28    29     0     0     0
SMALL
USER_CHARGES

@<TRIPOS>ATOM
      1 C1         -0.0189    1.5419    0.0105 C.3       1 <0>        -0.1418
      2 C2          1.4530    1.9923   -0.0011 C.3       1 <0>        -0.1721
      3 C3          2.3005    0.6992   -0.0163 C.3       1 <0>         0.1307
      4 C4          1.3715   -0.3550    0.6416 C.3       1 <0>         0.0314
      5 C5          0.0021   -0.0041    0.0020 C.3       1 <0>        -0.1000
      6 C6          0.0720   -0.4558   -1.4673 C.3       1 <0>        -0.1523
      7 C7          1.1229    0.3829   -2.1971 C.3       1 <0>         0.0653
      8 C8          2.4738    0.2793   -1.4865 C.3       1 <0>         0.0955
      9 O1          3.4165    1.1443   -2.1229 O.3       1 <0>        -0.5573
     10 O2          1.2570   -0.0901   -3.5389 O.3       1 <0>        -0.5618
     11 N1          1.3309   -0.1843    2.1001 N.4       1 <0>        -0.6233
     12 O3          3.5497    0.8521    0.6606 O.3       1 <0>        -0.5475
     13 H1         -0.5146    1.9049    0.9108 H         1 <0>         0.0845
     14 H2         -0.5317    1.9145   -0.8762 H         1 <0>         0.0971
     15 H3          1.6567    2.5842   -0.8935 H         1 <0>         0.1032
     16 H4          1.6738    2.5744    0.8936 H         1 <0>         0.0888
     17 H5          1.6789   -1.3666    0.3765 H         1 <0>         0.1573
     18 H6         -0.8383   -0.4382    0.5437 H         1 <0>         0.1242
     19 H7          0.3501   -1.5087   -1.5122 H         1 <0>         0.0896
     20 H8         -0.9002   -0.3135   -1.9392 H         1 <0>         0.0974
     21 H9          0.8039    1.4250   -2.2151 H         1 <0>         0.0788
     22 H10         2.8319   -0.7492   -1.5321 H         1 <0>         0.0772
     23 H11         3.5746    0.9367   -3.0540 H         1 <0>         0.4052
     24 H12         0.4415   -0.0416   -4.0564 H         1 <0>         0.3947
     25 H13         0.9828    0.7366    2.3213 H         1 <0>         0.4335
     26 H14         0.7215   -0.8801    2.5033 H         1 <0>         0.4383
     27 H15         4.1290    1.5211    0.2708 H         1 <0>         0.4181
     28 H16         2.2605   -0.2921    2.4773 H         1 <0>         0.4450
@<TRIPOS>BOND
     1    1    5 1
     2    1    2 1
     3    1   13 1
     4    1   14 1
     5    2    3 1
     6    2   15 1
     7    2   16 1
     8    3    8 1
     9    3    4 1
    10    3   12 1
    11    4    5 1
    12    4   11 1
    13    4   17 1
    14    5    6 1
    15    5   18 1
    16    6    7 1
    17    6   19 1
    18    6   20 1
    19    7    8 1
    20    7   10 1
    21    7   21 1
    22    8    9 1
    23    8   22 1
    24    9   23 1
    25   10   24 1
    26   11   25 1
    27   11   26 1
    28   11   28 1
    29   12   27 1
@<TRIPOS>MOLECULE
CHEMBL325028__12
   28    29     0     0     0
SMALL
USER_CHARGES

@<TRIPOS>ATOM
      1 C1          0.1043    1.5998   -0.0675 C.3       1 <0>        -0.1145
      2 C2          1.5804    2.0074    0.0892 C.3       1 <0>        -0.1424
      3 C3          2.3913    0.6913    0.1194 C.3       1 <0>         0.1315
      4 C4          1.3715   -0.3550    0.6416 C.3       1 <0>         0.0349
      5 C5          0.0863    0.0548   -0.1251 C.3       1 <0>        -0.1012
      6 C6          0.2984   -0.3539   -1.5933 C.3       1 <0>        -0.1687
      7 C7          1.4414    0.4756   -2.1815 C.3       1 <0>         0.0723
      8 C8          2.7070    0.3112   -1.3379 C.3       1 <0>         0.0707
      9 O1          3.1454   -1.0478   -1.3933 O.3       1 <0>        -0.5844
     10 O2          1.0632    1.8535   -2.2031 O.3       1 <0>        -0.5403
     11 N1          1.7858   -1.7183    0.2843 N.4       1 <0>        -0.6202
     12 O3          3.5660    0.7871    0.9273 O.3       1 <0>        -0.5404
     13 H1         -0.4737    1.9496    0.7879 H         1 <0>         0.0737
     14 H2         -0.3028    2.0139   -0.9899 H         1 <0>         0.1065
     15 H3          1.8918    2.6199   -0.7570 H         1 <0>         0.1181
     16 H4          1.7209    2.5554    1.0208 H         1 <0>         0.0844
     17 H5          1.2312   -0.2604    1.7184 H         1 <0>         0.1535
     18 H6         -0.8172   -0.3709    0.3115 H         1 <0>         0.1202
     19 H7          0.5525   -1.4127   -1.6440 H         1 <0>         0.0711
     20 H8         -0.6149   -0.1692   -2.1588 H         1 <0>         0.1057
     21 H9          1.6412    0.1432   -3.2002 H         1 <0>         0.0786
     22 H10         3.4898    0.9643   -1.7237 H         1 <0>         0.0987
     23 H11         3.3622   -1.3551   -2.2842 H         1 <0>         0.4096
     24 H12         0.2745    2.0366   -2.7318 H         1 <0>         0.3875
     25 H13         2.7562   -1.8496    0.5275 H         1 <0>         0.4412
     26 H14         1.2197   -2.3847    0.7878 H         1 <0>         0.4228
     27 H15         4.2001    1.4505    0.6224 H         1 <0>         0.4043
     28 H16         1.6660   -1.8571   -0.7079 H         1 <0>         0.4268
@<TRIPOS>BOND
     1    1    5 1
     2    1    2 1
     3    1   13 1
     4    1   14 1
     5    2    3 1
     6    2   15 1
     7    2   16 1
     8    3    8 1
     9    3    4 1
    10    3   12 1
    11    4    5 1
    12    4   11 1
    13    4   17 1
    14    5    6 1
    15    5   18 1
    16    6    7 1
    17    6   19 1
    18    6   20 1
    19    7    8 1
    20    7   10 1
    21    7   21 1
    22    8    9 1
    23    8   22 1
    24    9   23 1
    25   10   24 1
    26   11   25 1
    27   11   26 1
    28   11   28 1
    29   12   27 1
@<TRIPOS>MOLECULE
CHEMBL325028__13
   28    29     0     0     0
SMALL
USER_CHARGES

@<TRIPOS>ATOM
      1 C1         -0.1718    1.4611    0.1417 C.3       1 <0>        -0.1148
      2 C2          1.2635    1.9612   -0.1022 C.3       1 <0>        -0.1412
      3 C3          2.1524    0.6990   -0.1872 C.3       1 <0>         0.1281
      4 C4          1.3715   -0.3550    0.6416 C.3       1 <0>         0.0298
      5 C5         -0.0888   -0.0820    0.1939 C.3       1 <0>        -0.1003
      6 C6         -0.2122   -0.5990   -1.2501 C.3       1 <0>        -0.1722
      7 C7          0.6877    0.2406   -2.1588 C.3       1 <0>         0.0655
      8 C8          2.1297    0.2171   -1.6483 C.3       1 <0>         0.0781
      9 O1          2.9349    1.0837   -2.4500 O.3       1 <0>        -0.5378
     10 O2          0.2146    1.5889   -2.1776 O.3       1 <0>        -0.5312
     11 N1          1.7858   -1.7183    0.2843 N.4       1 <0>        -0.6363
     12 O3          3.4785    0.9264    0.2942 O.3       1 <0>        -0.5439
     13 H1         -0.5476    1.8483    1.0888 H         1 <0>         0.0729
     14 H2         -0.8215    1.7739   -0.6757 H         1 <0>         0.1070
     15 H3          1.3123    2.5175   -1.0383 H         1 <0>         0.1243
     16 H4          1.5863    2.5917    0.7262 H         1 <0>         0.0776
     17 H5          1.4919   -0.1791    1.7105 H         1 <0>         0.1644
     18 H6         -0.8241   -0.5192    0.8693 H         1 <0>         0.1229
     19 H7          0.0996   -1.6427   -1.2917 H         1 <0>         0.0673
     20 H8         -1.2471   -0.5127   -1.5812 H         1 <0>         0.1091
     21 H9          0.6566   -0.1638   -3.1706 H         1 <0>         0.0779
     22 H10         2.5195   -0.7993   -1.7032 H         1 <0>         0.0561
     23 H11         2.9660    0.8385   -3.3849 H         1 <0>         0.3970
     24 H12        -0.6907    1.6836   -2.5040 H         1 <0>         0.3814
     25 H13         2.7562   -1.8496    0.5275 H         1 <0>         0.4419
     26 H14         1.2197   -2.3847    0.7878 H         1 <0>         0.4384
     27 H15         3.9678    1.5962   -0.2028 H         1 <0>         0.4122
     28 H16         1.6660   -1.8571   -0.7079 H         1 <0>         0.4259
@<TRIPOS>BOND
     1    1    5 1
     2    1    2 1
     3    1   13 1
     4    1   14 1
     5    2    3 1
     6    2   15 1
     7    2   16 1
     8    3    8 1
     9    3    4 1
    10    3   12 1
    11    4    5 1
    12    4   11 1
    13    4   17 1
    14    5    6 1
    15    5   18 1
    16    6    7 1
    17    6   19 1
    18    6   20 1
    19    7    8 1
    20    7   10 1
    21    7   21 1
    22    8    9 1
    23    8   22 1
    24    9   23 1
    25   10   24 1
    26   11   25 1
    27   11   26 1
    28   11   28 1
    29   12   27 1
@<TRIPOS>MOLECULE
CHEMBL325028__14
   28    29     0     0     0
SMALL
USER_CHARGES

@<TRIPOS>ATOM
      1 C1          0.1043    1.5998   -0.0675 C.3       1 <0>        -0.1230
      2 C2          1.5804    2.0074    0.0892 C.3       1 <0>        -0.1558
      3 C3          2.3913    0.6913    0.1194 C.3       1 <0>         0.1315
      4 C4          1.3715   -0.3550    0.6416 C.3       1 <0>         0.0375
      5 C5          0.0863    0.0548   -0.1251 C.3       1 <0>        -0.0998
      6 C6          0.2984   -0.3539   -1.5933 C.3       1 <0>        -0.1688
      7 C7          1.4414    0.4756   -2.1815 C.3       1 <0>         0.0640
      8 C8          2.7071    0.3112   -1.3379 C.3       1 <0>         0.0755
      9 O1          3.1454   -1.0478   -1.3933 O.3       1 <0>        -0.5872
     10 O2          1.7034    0.0398   -3.5170 O.3       1 <0>        -0.5634
     11 N1          1.7858   -1.7183    0.2843 N.4       1 <0>        -0.6200
     12 O3          3.5660    0.7871    0.9274 O.3       1 <0>        -0.5339
     13 H1         -0.4737    1.9496    0.7879 H         1 <0>         0.0929
     14 H2         -0.3028    2.0139   -0.9899 H         1 <0>         0.0919
     15 H3          1.8918    2.6199   -0.7570 H         1 <0>         0.0931
     16 H4          1.7209    2.5554    1.0209 H         1 <0>         0.1021
     17 H5          1.2312   -0.2604    1.7184 H         1 <0>         0.1568
     18 H6         -0.8172   -0.3709    0.3115 H         1 <0>         0.1272
     19 H7          0.5526   -1.4127   -1.6440 H         1 <0>         0.0728
     20 H8         -0.6149   -0.1692   -2.1589 H         1 <0>         0.1052
     21 H9          1.1529    1.5266   -2.1980 H         1 <0>         0.0895
     22 H10         3.4899    0.9643   -1.7237 H         1 <0>         0.0960
     23 H11         3.3622   -1.3551   -2.2842 H         1 <0>         0.4158
     24 H12         0.9483    0.1277   -4.1146 H         1 <0>         0.3993
     25 H13         2.7562   -1.8496    0.5275 H         1 <0>         0.4422
     26 H14         1.2197   -2.3847    0.7878 H         1 <0>         0.4233
     27 H15         4.2001    1.4505    0.6224 H         1 <0>         0.4057
     28 H16         1.6660   -1.8571   -0.7079 H         1 <0>         0.4297
@<TRIPOS>BOND
     1    1    5 1
     2    1    2 1
     3    1   13 1
     4    1   14 1
     5    2    3 1
     6    2   15 1
     7    2   16 1
     8    3    8 1
     9    3    4 1
    10    3   12 1
    11    4    5 1
    12    4   11 1
    13    4   17 1
    14    5    6 1
    15    5   18 1
    16    6    7 1
    17    6   19 1
    18    6   20 1
    19    7    8 1
    20    7   10 1
    21    7   21 1
    22    8    9 1
    23    8   22 1
    24    9   23 1
    25   10   24 1
    26   11   25 1
    27   11   26 1
    28   11   28 1
    29   12   27 1
@<TRIPOS>MOLECULE
CHEMBL325028__15
   28    29     0     0     0
SMALL
USER_CHARGES

@<TRIPOS>ATOM
      1 C1         -0.1718    1.4611    0.1417 C.3       1 <0>        -0.1230
      2 C2          1.2635    1.9612   -0.1022 C.3       1 <0>        -0.1548
      3 C3          2.1524    0.6990   -0.1872 C.3       1 <0>         0.1302
      4 C4          1.3715   -0.3550    0.6416 C.3       1 <0>         0.0322
      5 C5         -0.0888   -0.0820    0.1939 C.3       1 <0>        -0.0989
      6 C6         -0.2122   -0.5990   -1.2501 C.3       1 <0>        -0.1727
      7 C7          0.6877    0.2406   -2.1588 C.3       1 <0>         0.0579
      8 C8          2.1297    0.2171   -1.6483 C.3       1 <0>         0.0811
      9 O1          2.9349    1.0837   -2.4500 O.3       1 <0>        -0.5457
     10 O2          0.6469   -0.2896   -3.4852 O.3       1 <0>        -0.5634
     11 N1          1.7858   -1.7183    0.2843 N.4       1 <0>        -0.6366
     12 O3          3.4785    0.9264    0.2942 O.3       1 <0>        -0.5371
     13 H1         -0.5476    1.8483    1.0888 H         1 <0>         0.0925
     14 H2         -0.8215    1.7739   -0.6757 H         1 <0>         0.0920
     15 H3          1.3123    2.5175   -1.0383 H         1 <0>         0.0981
     16 H4          1.5863    2.5917    0.7262 H         1 <0>         0.0968
     17 H5          1.4919   -0.1791    1.7105 H         1 <0>         0.1682
     18 H6         -0.8241   -0.5192    0.8693 H         1 <0>         0.1303
     19 H7          0.0996   -1.6427   -1.2917 H         1 <0>         0.0692
     20 H8         -1.2471   -0.5127   -1.5812 H         1 <0>         0.1090
     21 H9          0.3269    1.2691   -2.1731 H         1 <0>         0.0920
     22 H10         2.5195   -0.7993   -1.7032 H         1 <0>         0.0536
     23 H11         2.9660    0.8385   -3.3849 H         1 <0>         0.4052
     24 H12        -0.2357   -0.2935   -3.8803 H         1 <0>         0.3986
     25 H13         2.7562   -1.8496    0.5275 H         1 <0>         0.4428
     26 H14         1.2197   -2.3847    0.7878 H         1 <0>         0.4392
     27 H15         3.9678    1.5962   -0.2028 H         1 <0>         0.4138
     28 H16         1.6660   -1.8571   -0.7079 H         1 <0>         0.4296
@<TRIPOS>BOND
     1    1    5 1
     2    1    2 1
     3    1   13 1
     4    1   14 1
     5    2    3 1
     6    2   15 1
     7    2   16 1
     8    3    8 1
     9    3    4 1
    10    3   12 1
    11    4    5 1
    12    4   11 1
    13    4   17 1
    14    5    6 1
    15    5   18 1
    16    6    7 1
    17    6   19 1
    18    6   20 1
    19    7    8 1
    20    7   10 1
    21    7   21 1
    22    8    9 1
    23    8   22 1
    24    9   23 1
    25   10   24 1
    26   11   25 1
    27   11   26 1
    28   11   28 1
    29   12   27 1
@<TRIPOS>MOLECULE
CHEMBL259854
   63    66     0     0     0
SMALL
USER_CHARGES

@<TRIPOS>ATOM
      1 C1          1.5659    1.5318    1.0250 C.3       1 <0>        -0.1556
      2 C2          1.6016    0.0022    1.0162 C.3       1 <0>        -0.1268
      3 C3          1.5699   -0.5003   -0.4286 C.3       1 <0>        -0.1163
      4 C4          1.6056   -2.0299   -0.4374 C.3       1 <0>        -0.0907
      5 C5          2.9423   -2.5121    0.1297 C.3       1 <0>        -0.1172
      6 C6          2.9780   -4.0417    0.1209 C.3       1 <0>        -0.1008
      7 C7          2.8208   -4.5472   -1.3146 C.3       1 <0>        -0.1037
      8 C8          1.4841   -4.0650   -1.8817 C.3       1 <0>        -0.1116
      9 C9          1.4485   -2.5354   -1.8729 C.3       1 <0>        -0.1140
     10 C10         2.8560   -6.0538   -1.3233 C.2       1 <0>         0.5238
     11 O1          2.9932   -6.6632   -0.2836 O.2       1 <0>        -0.5101
     12 N1          2.7349   -6.7240   -2.4863 N.am      1 <0>        -0.6779
     13 C11         2.8582   -8.1183   -2.5068 C.ar      1 <0>         0.1653
     14 C12         2.3780   -8.8729   -1.4311 C.ar      1 <0>        -0.0407
     15 C13         2.4846  -10.2285   -1.4246 C.ar      1 <0>        -0.1258
     16 C14         3.0842  -10.8918   -2.5094 C.ar      1 <0>         0.1476
     17 C15         3.5719  -10.1335   -3.6017 C.ar      1 <0>        -0.0920
     18 C16         3.4463   -8.7362   -3.5887 C.ar      1 <0>        -0.0947
     19 C17         4.1727  -10.8022   -4.6880 C.ar      1 <0>         0.0983
     20 C18         4.2599  -12.1612   -4.6416 C.ar      1 <0>        -0.2260
     21 C19         3.7582  -12.8554   -3.5318 C.ar      1 <0>         0.4981
     22 N2          3.1977  -12.2252   -2.5203 N.ar      1 <0>        -0.5264
     23 N3          3.8536  -14.2394   -3.4986 N.pl3     1 <0>        -0.5845
     24 C20         4.5844  -14.9735   -4.5438 C.3       1 <0>         0.0711
     25 C21         5.5669  -15.9335   -3.8632 C.3       1 <0>         0.0427
     26 O2          4.8625  -16.7266   -2.9048 O.3       1 <0>        -0.3628
     27 C22         4.2761  -15.9740   -1.8401 C.3       1 <0>         0.0458
     28 C23         3.2323  -15.0157   -2.4140 C.3       1 <0>         0.0587
     29 C24         4.7043  -10.0336   -5.8703 C.3       1 <0>        -0.1441
     30 H1          2.4313    1.9185    0.4867 H         1 <0>         0.0537
     31 H2          0.6526    1.8767    0.5403 H         1 <0>         0.0538
     32 H3          1.5885    1.8898    2.0543 H         1 <0>         0.0547
     33 H4          2.5149   -0.3427    1.5009 H         1 <0>         0.0632
     34 H5          0.7363   -0.3845    1.5544 H         1 <0>         0.0604
     35 H6          0.6566   -0.1554   -0.9133 H         1 <0>         0.0631
     36 H7          2.4353   -0.1136   -0.9668 H         1 <0>         0.0628
     37 H8          0.7907   -2.4159    0.1750 H         1 <0>         0.0721
     38 H9          3.7572   -2.1262   -0.4827 H         1 <0>         0.0649
     39 H10         3.0543   -2.1520    1.1524 H         1 <0>         0.0732
     40 H11         3.9303   -4.3852    0.5249 H         1 <0>         0.0714
     41 H12         2.1631   -4.4277    0.7333 H         1 <0>         0.0720
     42 H13         3.6358   -4.1613   -1.9270 H         1 <0>         0.1064
     43 H14         1.3722   -4.4252   -2.9044 H         1 <0>         0.0661
     44 H15         0.6692   -4.4510   -1.2693 H         1 <0>         0.0715
     45 H16         0.4962   -2.1919   -2.2769 H         1 <0>         0.0707
     46 H17         2.2634   -2.1495   -2.4853 H         1 <0>         0.0675
     47 H18         2.5624   -6.2402   -3.3092 H         1 <0>         0.4207
     48 H19         1.9162   -8.3714   -0.5934 H         1 <0>         0.1660
     49 H20         2.1088  -10.7957   -0.5858 H         1 <0>         0.1545
     50 H21         3.8113   -8.1492   -4.4185 H         1 <0>         0.1587
     51 H22         4.7143  -12.7024   -5.4583 H         1 <0>         0.1793
     52 H23         3.8813  -15.5399   -5.1545 H         1 <0>         0.1076
     53 H24         5.1328  -14.2706   -5.1710 H         1 <0>         0.1131
     54 H25         6.0186  -16.5837   -4.6124 H         1 <0>         0.1274
     55 H26         6.3459  -15.3608   -3.3599 H         1 <0>         0.0667
     56 H27         3.7991  -16.6534   -1.1337 H         1 <0>         0.1264
     57 H28         5.0504  -15.4015   -1.3294 H         1 <0>         0.0656
     58 H29         2.8856  -14.3408   -1.6314 H         1 <0>         0.0893
     59 H30         2.3907  -15.5864   -2.8065 H         1 <0>         0.1128
     60 H31         5.7482   -9.7735   -5.6949 H         1 <0>         0.1091
     61 H32         4.6288  -10.6485   -6.7671 H         1 <0>         0.0979
     62 H33         4.1204   -9.1230   -6.0039 H         1 <0>         0.0943
     63 H34         2.8615  -12.7373   -1.7682 H         1 <0>         0.4331
@<TRIPOS>BOND
     1    1    2 1
     2    1   30 1
     3    1   31 1
     4    1   32 1
     5    2    3 1
     6    2   33 1
     7    2   34 1
     8    3    4 1
     9    3   35 1
    10    3   36 1
    11    4    9 1
    12    4    5 1
    13    4   37 1
    14    5    6 1
    15    5   38 1
    16    5   39 1
    17    6    7 1
    18    6   40 1
    19    6   41 1
    20    7    8 1
    21    7   10 1
    22    7   42 1
    23    8    9 1
    24    8   43 1
    25    8   44 1
    26    9   45 1
    27    9   46 1
    28   10   11 2
    29   10   12 am
    30   12   13 1
    31   12   47 1
    32   13   18 ar
    33   13   14 ar
    34   14   15 ar
    35   14   48 1
    36   15   16 ar
    37   15   49 1
    38   16   22 ar
    39   16   17 ar
    40   17   18 ar
    41   17   19 ar
    42   18   50 1
    43   19   20 ar
    44   19   29 1
    45   20   21 ar
    46   20   51 1
    47   21   22 ar
    48   21   23 1
    49   22   63 1
    50   23   28 1
    51   23   24 1
    52   24   25 1
    53   24   52 1
    54   24   53 1
    55   25   26 1
    56   25   54 1
    57   25   55 1
    58   26   27 1
    59   27   28 1
    60   27   56 1
    61   27   57 1
    62   28   58 1
    63   28   59 1
    64   29   60 1
    65   29   61 1
    66   29   62 1
@<TRIPOS>MOLECULE
CHEMBL10219
   61    61     0     0     0
SMALL
USER_CHARGES

@<TRIPOS>ATOM
      1 C1         -0.0187    1.5258    0.0104 C.3       1 <0>        -0.1548
      2 C2          0.0021   -0.0041    0.0020 C.3       1 <0>        -0.1263
      3 C3          0.7182   -0.4975   -1.2568 C.3       1 <0>        -0.1212
      4 C4          0.7390   -2.0273   -1.2652 C.3       1 <0>        -0.1216
      5 C5          1.4551   -2.5207   -2.5240 C.3       1 <0>        -0.1205
      6 C6          1.4758   -4.0506   -2.5324 C.3       1 <0>        -0.1215
      7 C7          2.1920   -4.5440   -3.7912 C.3       1 <0>        -0.1201
      8 C8          2.2127   -6.0738   -3.7996 C.3       1 <0>        -0.1214
      9 C9          2.9289   -6.5673   -5.0584 C.3       1 <0>        -0.1201
     10 C10         2.9496   -8.0971   -5.0668 C.3       1 <0>        -0.1083
     11 C11         3.6658   -8.5905   -6.3257 C.3       1 <0>        -0.1406
     12 C12         3.6862  -10.0973   -6.3339 C.2       1 <0>         0.5182
     13 O1          3.1780  -10.7157   -5.4227 O.2       1 <0>        -0.5097
     14 N1          4.2692  -10.7578   -7.3539 N.am      1 <0>        -0.7598
     15 C13         4.2891  -12.2226   -7.3620 C.3       1 <0>         0.1003
     16 C14         5.0052  -12.7160   -8.6208 C.3       1 <0>         0.0266
     17 H1          4.4290  -12.4448   -9.5054 H         1 <0>         0.1606
     18 C15         5.1813  -14.2479   -8.5583 C.3       1 <0>         0.0678
     19 C16         6.5894  -14.4632   -9.1729 C.3       1 <0>         0.0602
     20 H2          7.0434  -15.3801   -8.7970 H         1 <0>         0.1144
     21 C17         7.3497  -13.2158   -8.6577 C.3       1 <0>         0.0367
     22 H3          7.6968  -13.3776   -7.6372 H         1 <0>         0.1677
     23 N2          6.3520  -12.1209   -8.6975 N.4       1 <0>        -0.5089
     24 C18         8.5305  -12.8946   -9.5762 C.3       1 <0>         0.0606
     25 O2          8.0688  -12.7826  -10.9239 O.3       1 <0>        -0.5505
     26 O3          6.5287  -14.4731  -10.6006 O.3       1 <0>        -0.5130
     27 O4          4.1823  -14.9037   -9.3418 O.3       1 <0>        -0.5371
     28 H4          1.0039    1.9031    0.0027 H         1 <0>         0.0534
     29 H5         -0.5459    1.8868   -0.8726 H         1 <0>         0.0536
     30 H6         -0.5289    1.8773    0.9072 H         1 <0>         0.0545
     31 H7          0.5293   -0.3651    0.8851 H         1 <0>         0.0604
     32 H8         -1.0205   -0.3814    0.0098 H         1 <0>         0.0605
     33 H9          0.1910   -0.1364   -2.1398 H         1 <0>         0.0607
     34 H10         1.7408   -0.1202   -1.2645 H         1 <0>         0.0605
     35 H11         1.2661   -2.3884   -0.3821 H         1 <0>         0.0607
     36 H12        -0.2836   -2.4046   -1.2575 H         1 <0>         0.0609
     37 H13         0.9279   -2.1597   -3.4071 H         1 <0>         0.0606
     38 H14         2.4777   -2.1435   -2.5317 H         1 <0>         0.0604
     39 H15         2.0030   -4.4117   -1.6494 H         1 <0>         0.0610
     40 H16         0.4533   -4.4279   -2.5247 H         1 <0>         0.0614
     41 H17         1.6648   -4.1829   -4.6743 H         1 <0>         0.0611
     42 H18         3.2146   -4.1667   -3.7990 H         1 <0>         0.0606
     43 H19         2.7399   -6.4349   -2.9166 H         1 <0>         0.0627
     44 H20         1.1901   -6.4511   -3.7919 H         1 <0>         0.0633
     45 H21         2.4017   -6.2062   -5.9415 H         1 <0>         0.0637
     46 H22         3.9515   -6.1900   -5.0662 H         1 <0>         0.0627
     47 H23         3.4768   -8.4582   -4.1838 H         1 <0>         0.0716
     48 H24         1.9270   -8.4744   -5.0591 H         1 <0>         0.0726
     49 H25         3.1386   -8.2294   -7.2087 H         1 <0>         0.1002
     50 H26         4.6884   -8.2132   -6.3334 H         1 <0>         0.0977
     51 H27         4.6756  -10.2632   -8.0827 H         1 <0>         0.3975
     52 H28         4.8163  -12.5837   -6.4789 H         1 <0>         0.0962
     53 H29         3.2665  -12.5999   -7.3543 H         1 <0>         0.1183
     54 H30         5.1538  -14.5971   -7.5261 H         1 <0>         0.1091
     55 H31         6.4462  -11.6039   -9.5589 H         1 <0>         0.4421
     56 H32         8.9847  -11.9529   -9.2682 H         1 <0>         0.0715
     57 H33         9.2695  -13.6931   -9.5105 H         1 <0>         0.0943
     58 H34         8.7657  -12.5796  -11.5628 H         1 <0>         0.4011
     59 H35         5.9818  -15.1819  -10.9660 H         1 <0>         0.3938
     60 H36         4.2485  -15.8684   -9.3361 H         1 <0>         0.4059
     61 H37         6.4947  -11.5016   -7.9138 H         1 <0>         0.4276
@<TRIPOS>BOND
     1    1    2 1
     2    1   28 1
     3    1   29 1
     4    1   30 1
     5    2    3 1
     6    2   31 1
     7    2   32 1
     8    3    4 1
     9    3   33 1
    10    3   34 1
    11    4    5 1
    12    4   35 1
    13    4   36 1
    14    5    6 1
    15    5   37 1
    16    5   38 1
    17    6    7 1
    18    6   39 1
    19    6   40 1
    20    7    8 1
    21    7   41 1
    22    7   42 1
    23    8    9 1
    24    8   43 1
    25    8   44 1
    26    9   10 1
    27    9   45 1
    28    9   46 1
    29   10   11 1
    30   10   47 1
    31   10   48 1
    32   11   12 1
    33   11   49 1
    34   11   50 1
    35   12   13 2
    36   12   14 am
    37   14   15 1
    38   14   51 1
    39   15   16 1
    40   15   52 1
    41   15   53 1
    42   16   17 1
    43   16   23 1
    44   16   18 1
    45   18   19 1
    46   18   27 1
    47   18   54 1
    48   19   20 1
    49   19   21 1
    50   19   26 1
    51   21   22 1
    52   21   23 1
    53   21   24 1
    54   23   55 1
    55   23   61 1
    56   24   25 1
    57   24   56 1
    58   24   57 1
    59   25   58 1
    60   26   59 1
    61   27   60 1
@<TRIPOS>MOLECULE
CHEMBL10219__1
   60    60     0     0     0
SMALL
USER_CHARGES

@<TRIPOS>ATOM
      1 C1         -0.0187    1.5258    0.0104 C.3       1 <0>        -0.1542
      2 C2          0.0021   -0.0041    0.0020 C.3       1 <0>        -0.1263
      3 C3          0.7182   -0.4975   -1.2568 C.3       1 <0>        -0.1211
      4 C4          0.7390   -2.0273   -1.2652 C.3       1 <0>        -0.1214
      5 C5          1.4551   -2.5207   -2.5240 C.3       1 <0>        -0.1204
      6 C6          1.4758   -4.0506   -2.5324 C.3       1 <0>        -0.1211
      7 C7          2.1920   -4.5440   -3.7912 C.3       1 <0>        -0.1199
      8 C8          2.2127   -6.0738   -3.7996 C.3       1 <0>        -0.1205
      9 C9          2.9289   -6.5673   -5.0584 C.3       1 <0>        -0.1200
     10 C10         2.9496   -8.0971   -5.0668 C.3       1 <0>        -0.1044
     11 C11         3.6658   -8.5905   -6.3257 C.3       1 <0>        -0.1401
     12 C12         3.6862  -10.0973   -6.3339 C.2       1 <0>         0.5110
     13 O1          3.1780  -10.7157   -5.4227 O.2       1 <0>        -0.5442
     14 N1          4.2692  -10.7578   -7.3539 N.am      1 <0>        -0.7201
     15 C13         4.2891  -12.2226   -7.3620 C.3       1 <0>         0.1390
     16 C14         5.0052  -12.7160   -8.6208 C.3       1 <0>         0.0732
     17 H1          4.4417  -12.4232   -9.5067 H         1 <0>         0.0838
     18 C15         5.1500  -14.2517   -8.5746 C.3       1 <0>         0.0618
     19 C16         6.5584  -14.4884   -9.1807 C.3       1 <0>         0.0429
     20 H2          6.9909  -15.4185   -8.8119 H         1 <0>         0.0779
     21 C17         7.3395  -13.2625   -8.6452 C.3       1 <0>         0.0911
     22 H3          7.6751  -13.4429   -7.6240 H         1 <0>         0.1101
     23 N2          6.3643  -12.1474   -8.6802 N.3       1 <0>        -0.6569
     24 C18         8.5337  -12.9548   -9.5507 C.3       1 <0>         0.0804
     25 O2          9.3058  -11.8975   -8.9781 O.3       1 <0>        -0.5671
     26 O3          6.5089  -14.4809  -10.6088 O.3       1 <0>        -0.5485
     27 O4          4.1443  -14.8783   -9.3734 O.3       1 <0>        -0.5512
     28 H4          1.0039    1.9031    0.0027 H         1 <0>         0.0533
     29 H5         -0.5459    1.8868   -0.8726 H         1 <0>         0.0532
     30 H6         -0.5289    1.8773    0.9072 H         1 <0>         0.0533
     31 H7          0.5293   -0.3651    0.8851 H         1 <0>         0.0603
     32 H8         -1.0205   -0.3814    0.0098 H         1 <0>         0.0602
     33 H9          0.1910   -0.1364   -2.1398 H         1 <0>         0.0604
     34 H10         1.7408   -0.1202   -1.2645 H         1 <0>         0.0605
     35 H11         1.2661   -2.3884   -0.3821 H         1 <0>         0.0606
     36 H12        -0.2836   -2.4046   -1.2575 H         1 <0>         0.0605
     37 H13         0.9279   -2.1597   -3.4071 H         1 <0>         0.0602
     38 H14         2.4777   -2.1435   -2.5317 H         1 <0>         0.0603
     39 H15         2.0030   -4.4117   -1.6494 H         1 <0>         0.0607
     40 H16         0.4533   -4.4279   -2.5247 H         1 <0>         0.0606
     41 H17         1.6648   -4.1829   -4.6743 H         1 <0>         0.0603
     42 H18         3.2146   -4.1667   -3.7990 H         1 <0>         0.0605
     43 H19         2.7399   -6.4349   -2.9166 H         1 <0>         0.0620
     44 H20         1.1901   -6.4511   -3.7919 H         1 <0>         0.0617
     45 H21         2.4017   -6.2062   -5.9415 H         1 <0>         0.0615
     46 H22         3.9515   -6.1900   -5.0662 H         1 <0>         0.0620
     47 H23         3.4768   -8.4582   -4.1838 H         1 <0>         0.0691
     48 H24         1.9270   -8.4744   -5.0591 H         1 <0>         0.0686
     49 H25         3.1386   -8.2294   -7.2087 H         1 <0>         0.0915
     50 H26         4.6884   -8.2132   -6.3334 H         1 <0>         0.0936
     51 H27         4.6756  -10.2632   -8.0827 H         1 <0>         0.4021
     52 H28         4.8163  -12.5837   -6.4789 H         1 <0>         0.0685
     53 H29         3.2665  -12.5999   -7.3543 H         1 <0>         0.0704
     54 H30         5.1072  -14.6121   -7.5467 H         1 <0>         0.0838
     55 H31         6.4848  -11.5845   -9.5089 H         1 <0>         0.3489
     56 H32         9.1541  -13.8456   -9.6491 H         1 <0>         0.0533
     57 H33         8.1752  -12.6514  -10.5344 H         1 <0>         0.0564
     58 H34        10.0809  -11.6491   -9.5002 H         1 <0>         0.3814
     59 H35         5.9508  -15.1743  -10.9867 H         1 <0>         0.3838
     60 H36         4.1911  -15.8442   -9.3783 H         1 <0>         0.3828
@<TRIPOS>BOND
     1    1    2 1
     2    1   28 1
     3    1   29 1
     4    1   30 1
     5    2    3 1
     6    2   31 1
     7    2   32 1
     8    3    4 1
     9    3   33 1
    10    3   34 1
    11    4    5 1
    12    4   35 1
    13    4   36 1
    14    5    6 1
    15    5   37 1
    16    5   38 1
    17    6    7 1
    18    6   39 1
    19    6   40 1
    20    7    8 1
    21    7   41 1
    22    7   42 1
    23    8    9 1
    24    8   43 1
    25    8   44 1
    26    9   10 1
    27    9   45 1
    28    9   46 1
    29   10   11 1
    30   10   47 1
    31   10   48 1
    32   11   12 1
    33   11   49 1
    34   11   50 1
    35   12   13 2
    36   12   14 am
    37   14   15 1
    38   14   51 1
    39   15   16 1
    40   15   52 1
    41   15   53 1
    42   16   17 1
    43   16   23 1
    44   16   18 1
    45   18   19 1
    46   18   27 1
    47   18   54 1
    48   19   20 1
    49   19   21 1
    50   19   26 1
    51   21   22 1
    52   21   23 1
    53   21   24 1
    54   23   55 1
    55   24   25 1
    56   24   56 1
    57   24   57 1
    58   25   58 1
    59   26   59 1
    60   27   60 1
@<TRIPOS>MOLECULE
CHEMBL10219__2
   61    61     0     0     0
SMALL
USER_CHARGES

@<TRIPOS>ATOM
      1 C1         -0.0187    1.5258    0.0104 C.3       1 <0>        -0.1548
      2 C2          0.0021   -0.0041    0.0020 C.3       1 <0>        -0.1263
      3 C3          0.7182   -0.4975   -1.2568 C.3       1 <0>        -0.1212
      4 C4          0.7390   -2.0273   -1.2652 C.3       1 <0>        -0.1216
      5 C5          1.4551   -2.5207   -2.5240 C.3       1 <0>        -0.1204
      6 C6          1.4758   -4.0506   -2.5324 C.3       1 <0>        -0.1215
      7 C7          2.1920   -4.5440   -3.7912 C.3       1 <0>        -0.1200
      8 C8          2.2127   -6.0738   -3.7996 C.3       1 <0>        -0.1214
      9 C9          2.9289   -6.5673   -5.0584 C.3       1 <0>        -0.1200
     10 C10         2.9496   -8.0971   -5.0668 C.3       1 <0>        -0.1083
     11 C11         3.6658   -8.5905   -6.3257 C.3       1 <0>        -0.1405
     12 C12         3.6862  -10.0973   -6.3339 C.2       1 <0>         0.5173
     13 O1          3.1780  -10.7157   -5.4227 O.2       1 <0>        -0.5088
     14 N1          4.2692  -10.7578   -7.3539 N.am      1 <0>        -0.7622
     15 C13         4.2891  -12.2226   -7.3620 C.3       1 <0>         0.1045
     16 C14         5.0052  -12.7160   -8.6208 C.3       1 <0>         0.0312
     17 H1          4.4290  -12.4448   -9.5054 H         1 <0>         0.1594
     18 C15         5.1813  -14.2479   -8.5583 C.3       1 <0>         0.0653
     19 C16         6.5894  -14.4632   -9.1729 C.3       1 <0>         0.0646
     20 H2          7.0434  -15.3801   -8.7970 H         1 <0>         0.1141
     21 C17         7.3497  -13.2158   -8.6577 C.3       1 <0>         0.0422
     22 H3          7.6968  -13.3776   -7.6372 H         1 <0>         0.1668
     23 N2          6.3520  -12.1209   -8.6975 N.4       1 <0>        -0.5116
     24 C18         8.5305  -12.8946   -9.5762 C.3       1 <0>         0.0598
     25 O2          8.0688  -12.7826  -10.9239 O.3       1 <0>        -0.5518
     26 O3          6.5287  -14.4731  -10.6006 O.3       1 <0>        -0.5179
     27 O4          5.1452  -14.7058   -7.2051 O.3       1 <0>        -0.5460
     28 H4          1.0039    1.9031    0.0027 H         1 <0>         0.0534
     29 H5         -0.5459    1.8868   -0.8726 H         1 <0>         0.0535
     30 H6         -0.5289    1.8773    0.9072 H         1 <0>         0.0545
     31 H7          0.5293   -0.3651    0.8851 H         1 <0>         0.0604
     32 H8         -1.0205   -0.3814    0.0098 H         1 <0>         0.0605
     33 H9          0.1910   -0.1364   -2.1398 H         1 <0>         0.0606
     34 H10         1.7408   -0.1202   -1.2645 H         1 <0>         0.0605
     35 H11         1.2661   -2.3884   -0.3821 H         1 <0>         0.0608
     36 H12        -0.2836   -2.4046   -1.2575 H         1 <0>         0.0609
     37 H13         0.9279   -2.1597   -3.4071 H         1 <0>         0.0606
     38 H14         2.4777   -2.1435   -2.5317 H         1 <0>         0.0603
     39 H15         2.0030   -4.4117   -1.6494 H         1 <0>         0.0611
     40 H16         0.4533   -4.4279   -2.5247 H         1 <0>         0.0614
     41 H17         1.6648   -4.1829   -4.6743 H         1 <0>         0.0610
     42 H18         3.2146   -4.1667   -3.7990 H         1 <0>         0.0606
     43 H19         2.7399   -6.4349   -2.9166 H         1 <0>         0.0628
     44 H20         1.1901   -6.4511   -3.7919 H         1 <0>         0.0633
     45 H21         2.4017   -6.2062   -5.9415 H         1 <0>         0.0634
     46 H22         3.9515   -6.1900   -5.0662 H         1 <0>         0.0626
     47 H23         3.4768   -8.4582   -4.1838 H         1 <0>         0.0717
     48 H24         1.9270   -8.4744   -5.0591 H         1 <0>         0.0724
     49 H25         3.1386   -8.2294   -7.2087 H         1 <0>         0.0993
     50 H26         4.6884   -8.2132   -6.3334 H         1 <0>         0.0969
     51 H27         4.6756  -10.2632   -8.0827 H         1 <0>         0.3950
     52 H28         4.8163  -12.5837   -6.4789 H         1 <0>         0.1082
     53 H29         3.2665  -12.5999   -7.3543 H         1 <0>         0.1134
     54 H30         4.4193  -14.7481   -9.1560 H         1 <0>         0.1165
     55 H31         6.4462  -11.6039   -9.5589 H         1 <0>         0.4393
     56 H32         8.9847  -11.9529   -9.2682 H         1 <0>         0.0709
     57 H33         9.2695  -13.6931   -9.5105 H         1 <0>         0.0936
     58 H34         8.7657  -12.5796  -11.5628 H         1 <0>         0.4010
     59 H35         5.9818  -15.1819  -10.9660 H         1 <0>         0.3943
     60 H36         5.2515  -15.6623   -7.1106 H         1 <0>         0.4074
     61 H37         6.4947  -11.5016   -7.9138 H         1 <0>         0.4273
@<TRIPOS>BOND
     1    1    2 1
     2    1   28 1
     3    1   29 1
     4    1   30 1
     5    2    3 1
     6    2   31 1
     7    2   32 1
     8    3    4 1
     9    3   33 1
    10    3   34 1
    11    4    5 1
    12    4   35 1
    13    4   36 1
    14    5    6 1
    15    5   37 1
    16    5   38 1
    17    6    7 1
    18    6   39 1
    19    6   40 1
    20    7    8 1
    21    7   41 1
    22    7   42 1
    23    8    9 1
    24    8   43 1
    25    8   44 1
    26    9   10 1
    27    9   45 1
    28    9   46 1
    29   10   11 1
    30   10   47 1
    31   10   48 1
    32   11   12 1
    33   11   49 1
    34   11   50 1
    35   12   13 2
    36   12   14 am
    37   14   15 1
    38   14   51 1
    39   15   16 1
    40   15   52 1
    41   15   53 1
    42   16   17 1
    43   16   23 1
    44   16   18 1
    45   18   19 1
    46   18   27 1
    47   18   54 1
    48   19   20 1
    49   19   21 1
    50   19   26 1
    51   21   22 1
    52   21   23 1
    53   21   24 1
    54   23   55 1
    55   23   61 1
    56   24   25 1
    57   24   56 1
    58   24   57 1
    59   25   58 1
    60   26   59 1
    61   27   60 1
@<TRIPOS>MOLECULE
CHEMBL10219__3
   60    60     0     0     0
SMALL
USER_CHARGES

@<TRIPOS>ATOM
      1 C1         -0.0187    1.5258    0.0104 C.3       1 <0>        -0.1542
      2 C2          0.0021   -0.0041    0.0020 C.3       1 <0>        -0.1263
      3 C3          0.7182   -0.4975   -1.2568 C.3       1 <0>        -0.1211
      4 C4          0.7390   -2.0273   -1.2652 C.3       1 <0>        -0.1214
      5 C5          1.4551   -2.5207   -2.5240 C.3       1 <0>        -0.1204
      6 C6          1.4758   -4.0506   -2.5324 C.3       1 <0>        -0.1211
      7 C7          2.1920   -4.5440   -3.7912 C.3       1 <0>        -0.1199
      8 C8          2.2127   -6.0738   -3.7996 C.3       1 <0>        -0.1206
      9 C9          2.9289   -6.5673   -5.0584 C.3       1 <0>        -0.1199
     10 C10         2.9496   -8.0971   -5.0668 C.3       1 <0>        -0.1043
     11 C11         3.6658   -8.5905   -6.3257 C.3       1 <0>        -0.1401
     12 C12         3.6862  -10.0973   -6.3339 C.2       1 <0>         0.5097
     13 O1          3.1780  -10.7157   -5.4227 O.2       1 <0>        -0.5433
     14 N1          4.2692  -10.7578   -7.3539 N.am      1 <0>        -0.7226
     15 C13         4.2891  -12.2226   -7.3620 C.3       1 <0>         0.1444
     16 C14         5.0052  -12.7160   -8.6208 C.3       1 <0>         0.0752
     17 H1          4.4417  -12.4232   -9.5067 H         1 <0>         0.0795
     18 C15         5.1500  -14.2517   -8.5746 C.3       1 <0>         0.0647
     19 C16         6.5584  -14.4884   -9.1807 C.3       1 <0>         0.0428
     20 H2          6.9909  -15.4185   -8.8119 H         1 <0>         0.0789
     21 C17         7.3395  -13.2625   -8.6452 C.3       1 <0>         0.0983
     22 H3          7.6751  -13.4429   -7.6240 H         1 <0>         0.1104
     23 N2          6.3643  -12.1474   -8.6802 N.3       1 <0>        -0.6592
     24 C18         8.5337  -12.9548   -9.5507 C.3       1 <0>         0.0788
     25 O2          9.3058  -11.8975   -8.9781 O.3       1 <0>        -0.5665
     26 O3          6.5089  -14.4809  -10.6088 O.3       1 <0>        -0.5535
     27 O4          5.0939  -14.7242   -7.2271 O.3       1 <0>        -0.5419
     28 H4          1.0039    1.9031    0.0027 H         1 <0>         0.0533
     29 H5         -0.5459    1.8868   -0.8726 H         1 <0>         0.0532
     30 H6         -0.5289    1.8773    0.9072 H         1 <0>         0.0533
     31 H7          0.5293   -0.3651    0.8851 H         1 <0>         0.0603
     32 H8         -1.0205   -0.3814    0.0098 H         1 <0>         0.0602
     33 H9          0.1910   -0.1364   -2.1398 H         1 <0>         0.0604
     34 H10         1.7408   -0.1202   -1.2645 H         1 <0>         0.0605
     35 H11         1.2661   -2.3884   -0.3821 H         1 <0>         0.0606
     36 H12        -0.2836   -2.4046   -1.2575 H         1 <0>         0.0605
     37 H13         0.9279   -2.1597   -3.4071 H         1 <0>         0.0601
     38 H14         2.4777   -2.1435   -2.5317 H         1 <0>         0.0603
     39 H15         2.0030   -4.4117   -1.6494 H         1 <0>         0.0608
     40 H16         0.4533   -4.4279   -2.5247 H         1 <0>         0.0606
     41 H17         1.6648   -4.1829   -4.6743 H         1 <0>         0.0601
     42 H18         3.2146   -4.1667   -3.7990 H         1 <0>         0.0605
     43 H19         2.7399   -6.4349   -2.9166 H         1 <0>         0.0620
     44 H20         1.1901   -6.4511   -3.7919 H         1 <0>         0.0617
     45 H21         2.4017   -6.2062   -5.9415 H         1 <0>         0.0611
     46 H22         3.9515   -6.1900   -5.0662 H         1 <0>         0.0619
     47 H23         3.4768   -8.4582   -4.1838 H         1 <0>         0.0692
     48 H24         1.9270   -8.4744   -5.0591 H         1 <0>         0.0684
     49 H25         3.1386   -8.2294   -7.2087 H         1 <0>         0.0904
     50 H26         4.6884   -8.2132   -6.3334 H         1 <0>         0.0928
     51 H27         4.6756  -10.2632   -8.0827 H         1 <0>         0.3997
     52 H28         4.8163  -12.5837   -6.4789 H         1 <0>         0.0820
     53 H29         3.2665  -12.5999   -7.3543 H         1 <0>         0.0647
     54 H30         4.3829  -14.7297   -9.1839 H         1 <0>         0.0761
     55 H31         6.4848  -11.5845   -9.5089 H         1 <0>         0.3454
     56 H32         9.1541  -13.8456   -9.6491 H         1 <0>         0.0521
     57 H33         8.1752  -12.6514  -10.5344 H         1 <0>         0.0551
     58 H34        10.0809  -11.6491   -9.5002 H         1 <0>         0.3806
     59 H35         5.9508  -15.1743  -10.9867 H         1 <0>         0.3837
     60 H36         5.1802  -15.6836   -7.1428 H         1 <0>         0.3820
@<TRIPOS>BOND
     1    1    2 1
     2    1   28 1
     3    1   29 1
     4    1   30 1
     5    2    3 1
     6    2   31 1
     7    2   32 1
     8    3    4 1
     9    3   33 1
    10    3   34 1
    11    4    5 1
    12    4   35 1
    13    4   36 1
    14    5    6 1
    15    5   37 1
    16    5   38 1
    17    6    7 1
    18    6   39 1
    19    6   40 1
    20    7    8 1
    21    7   41 1
    22    7   42 1
    23    8    9 1
    24    8   43 1
    25    8   44 1
    26    9   10 1
    27    9   45 1
    28    9   46 1
    29   10   11 1
    30   10   47 1
    31   10   48 1
    32   11   12 1
    33   11   49 1
    34   11   50 1
    35   12   13 2
    36   12   14 am
    37   14   15 1
    38   14   51 1
    39   15   16 1
    40   15   52 1
    41   15   53 1
    42   16   17 1
    43   16   23 1
    44   16   18 1
    45   18   19 1
    46   18   27 1
    47   18   54 1
    48   19   20 1
    49   19   21 1
    50   19   26 1
    51   21   22 1
    52   21   23 1
    53   21   24 1
    54   23   55 1
    55   24   25 1
    56   24   56 1
    57   24   57 1
    58   25   58 1
    59   26   59 1
    60   27   60 1
@<TRIPOS>MOLECULE
CHEMBL170431
   68    68     0     0     0
SMALL
USER_CHARGES

@<TRIPOS>ATOM
      1 C1         -0.0187    1.5258    0.0104 C.3       1 <0>        -0.1549
      2 C2          0.0021   -0.0041    0.0020 C.3       1 <0>        -0.1261
      3 C3         -1.4333   -0.5336    0.0129 C.3       1 <0>        -0.1214
      4 C4         -1.4126   -2.0635    0.0045 C.3       1 <0>        -0.1213
      5 C5         -2.8479   -2.5931    0.0153 C.3       1 <0>        -0.1208
      6 C6         -2.8272   -4.1229    0.0069 C.3       1 <0>        -0.1209
      7 C7         -4.2626   -4.6525    0.0178 C.3       1 <0>        -0.1208
      8 C8         -4.2418   -6.1823    0.0094 C.3       1 <0>        -0.1211
      9 C9         -5.6772   -6.7119    0.0202 C.3       1 <0>        -0.1211
     10 C10        -5.6565   -8.2417    0.0118 C.3       1 <0>        -0.1217
     11 C11        -7.0918   -8.7713    0.0227 C.3       1 <0>        -0.1210
     12 C12        -7.0711  -10.3012    0.0143 C.3       1 <0>        -0.1180
     13 C13        -8.5065  -10.8307    0.0251 C.3       1 <0>        -0.1473
     14 C14        -8.4857  -12.3606    0.0167 C.3       1 <0>        -0.0146
     15 N1         -9.8639  -12.8690    0.0271 N.4       1 <0>        -0.5007
     16 C15        -9.8440  -14.3379    0.0191 C.3       1 <0>         0.0873
     17 C16        -9.2357  -14.8201   -1.2653 C.2       1 <0>        -0.1881
     18 C17        -9.7004  -15.8069   -1.9623 C.2       1 <0>        -0.0813
     19 C18       -10.9184  -16.6000   -1.5889 C.3       1 <0>         0.1053
     20 C19       -11.2624  -16.3750   -0.1148 C.3       1 <0>         0.0922
     21 C20       -11.2739  -14.8653    0.1557 C.3       1 <0>         0.0940
     22 O1        -12.1191  -14.2138   -0.7947 O.3       1 <0>        -0.5620
     23 O2        -10.2784  -17.0033    0.7093 O.3       1 <0>        -0.5543
     24 O3        -10.6653  -17.9890   -1.8096 O.3       1 <0>        -0.5540
     25 C21        -8.9733  -16.1824   -3.2277 C.3       1 <0>         0.0945
     26 O4         -7.8507  -15.3165   -3.4069 O.3       1 <0>        -0.5731
     27 H1          1.0039    1.9031    0.0027 H         1 <0>         0.0545
     28 H2         -0.5459    1.8868   -0.8726 H         1 <0>         0.0535
     29 H3         -0.5289    1.8773    0.9072 H         1 <0>         0.0536
     30 H4          0.5123   -0.3556   -0.8948 H         1 <0>         0.0604
     31 H5          0.5293   -0.3651    0.8851 H         1 <0>         0.0604
     32 H6         -1.9435   -0.1821    0.9097 H         1 <0>         0.0607
     33 H7         -1.9605   -0.1726   -0.8702 H         1 <0>         0.0607
     34 H8         -0.9024   -2.4150   -0.8923 H         1 <0>         0.0607
     35 H9         -0.8854   -2.4246    0.8875 H         1 <0>         0.0607
     36 H10        -3.3581   -2.2415    0.9121 H         1 <0>         0.0606
     37 H11        -3.3751   -2.2320   -0.8677 H         1 <0>         0.0606
     38 H12        -2.3170   -4.4744   -0.8899 H         1 <0>         0.0607
     39 H13        -2.3000   -4.4840    0.8900 H         1 <0>         0.0608
     40 H14        -4.7728   -4.3010    0.9146 H         1 <0>         0.0608
     41 H15        -4.7898   -4.2914   -0.8653 H         1 <0>         0.0607
     42 H16        -3.7316   -6.5338   -0.8874 H         1 <0>         0.0612
     43 H17        -3.7146   -6.5434    0.8924 H         1 <0>         0.0613
     44 H18        -6.1874   -6.3604    0.9170 H         1 <0>         0.0616
     45 H19        -6.2044   -6.3508   -0.8628 H         1 <0>         0.0615
     46 H20        -5.1463   -8.5933   -0.8850 H         1 <0>         0.0633
     47 H21        -5.1293   -8.6028    0.8949 H         1 <0>         0.0634
     48 H22        -7.6020   -8.4198    0.9195 H         1 <0>         0.0656
     49 H23        -7.6190   -8.4102   -0.8604 H         1 <0>         0.0656
     50 H24        -6.5609  -10.6527   -0.8825 H         1 <0>         0.0738
     51 H25        -6.5439  -10.6622    0.8973 H         1 <0>         0.0738
     52 H26        -9.0167  -10.4792    0.9219 H         1 <0>         0.0866
     53 H27        -9.0337  -10.4697   -0.8579 H         1 <0>         0.0867
     54 H28        -7.9755  -12.7121   -0.8801 H         1 <0>         0.1339
     55 H29        -7.9586  -12.7217    0.8998 H         1 <0>         0.1317
     56 H30       -10.3362  -12.5436    0.8573 H         1 <0>         0.4272
     57 H31        -9.2453  -14.6957    0.8567 H         1 <0>         0.1625
     58 H32        -8.3558  -14.3119   -1.6311 H         1 <0>         0.1491
     59 H33       -11.7584  -16.2851   -2.2080 H         1 <0>         0.0918
     60 H34       -12.2458  -16.7932    0.0999 H         1 <0>         0.0908
     61 H35       -11.6391  -14.6767    1.1652 H         1 <0>         0.1031
     62 H36       -13.0417  -14.5015   -0.7628 H         1 <0>         0.4108
     63 H37       -10.2065  -17.9585    0.5772 H         1 <0>         0.4062
     64 H38       -10.4505  -18.2088   -2.7264 H         1 <0>         0.3930
     65 H39        -8.6286  -17.2140   -3.1562 H         1 <0>         0.0745
     66 H40        -9.6482  -16.0830   -4.0778 H         1 <0>         0.0719
     67 H41        -7.3350  -15.5009   -4.2039 H         1 <0>         0.3977
     68 H42       -10.3519  -12.5348   -0.7903 H         1 <0>         0.4334
@<TRIPOS>BOND
     1    1    2 1
     2    1   27 1
     3    1   28 1
     4    1   29 1
     5    2    3 1
     6    2   30 1
     7    2   31 1
     8    3    4 1
     9    3   32 1
    10    3   33 1
    11    4    5 1
    12    4   34 1
    13    4   35 1
    14    5    6 1
    15    5   36 1
    16    5   37 1
    17    6    7 1
    18    6   38 1
    19    6   39 1
    20    7    8 1
    21    7   40 1
    22    7   41 1
    23    8    9 1
    24    8   42 1
    25    8   43 1
    26    9   10 1
    27    9   44 1
    28    9   45 1
    29   10   11 1
    30   10   46 1
    31   10   47 1
    32   11   12 1
    33   11   48 1
    34   11   49 1
    35   12   13 1
    36   12   50 1
    37   12   51 1
    38   13   14 1
    39   13   52 1
    40   13   53 1
    41   14   15 1
    42   14   54 1
    43   14   55 1
    44   15   16 1
    45   15   56 1
    46   15   68 1
    47   16   21 1
    48   16   17 1
    49   16   57 1
    50   17   18 2
    51   17   58 1
    52   18   19 1
    53   18   25 1
    54   19   20 1
    55   19   24 1
    56   19   59 1
    57   20   21 1
    58   20   23 1
    59   20   60 1
    60   21   22 1
    61   21   61 1
    62   22   62 1
    63   23   63 1
    64   24   64 1
    65   25   26 1
    66   25   65 1
    67   25   66 1
    68   26   67 1
@<TRIPOS>MOLECULE
CHEMBL170431__1
   68    68     0     0     0
SMALL
USER_CHARGES

@<TRIPOS>ATOM
      1 C1         -0.0187    1.5258    0.0104 C.3       1 <0>        -0.1549
      2 C2          0.0021   -0.0041    0.0020 C.3       1 <0>        -0.1262
      3 C3         -1.4333   -0.5336    0.0129 C.3       1 <0>        -0.1214
      4 C4         -1.4126   -2.0635    0.0045 C.3       1 <0>        -0.1213
      5 C5         -2.8479   -2.5931    0.0153 C.3       1 <0>        -0.1208
      6 C6         -2.8272   -4.1229    0.0069 C.3       1 <0>        -0.1209
      7 C7         -4.2626   -4.6525    0.0178 C.3       1 <0>        -0.1208
      8 C8         -4.2418   -6.1823    0.0094 C.3       1 <0>        -0.1212
      9 C9         -5.6772   -6.7119    0.0202 C.3       1 <0>        -0.1210
     10 C10        -5.6565   -8.2417    0.0118 C.3       1 <0>        -0.1218
     11 C11        -7.0918   -8.7713    0.0227 C.3       1 <0>        -0.1209
     12 C12        -7.0711  -10.3012    0.0143 C.3       1 <0>        -0.1181
     13 C13        -8.5065  -10.8307    0.0251 C.3       1 <0>        -0.1476
     14 C14        -8.4857  -12.3606    0.0167 C.3       1 <0>        -0.0135
     15 N1         -9.8639  -12.8690    0.0271 N.4       1 <0>        -0.5038
     16 C15        -9.8440  -14.3379    0.0191 C.3       1 <0>         0.0840
     17 C16        -9.2357  -14.8201   -1.2653 C.2       1 <0>        -0.1881
     18 C17        -9.7004  -15.8069   -1.9623 C.2       1 <0>        -0.0892
     19 C18       -10.9184  -16.6000   -1.5889 C.3       1 <0>         0.1003
     20 C19       -11.2624  -16.3750   -0.1148 C.3       1 <0>         0.0929
     21 C20       -11.2739  -14.8653    0.1557 C.3       1 <0>         0.0968
     22 O1        -11.7527  -14.6180    1.4792 O.3       1 <0>        -0.5541
     23 O2        -10.2784  -17.0033    0.7093 O.3       1 <0>        -0.5478
     24 O3        -10.6653  -17.9890   -1.8096 O.3       1 <0>        -0.5493
     25 C21        -8.9733  -16.1824   -3.2277 C.3       1 <0>         0.0943
     26 O4         -7.8507  -15.3165   -3.4069 O.3       1 <0>        -0.5733
     27 H1          1.0039    1.9031    0.0027 H         1 <0>         0.0545
     28 H2         -0.5459    1.8868   -0.8726 H         1 <0>         0.0535
     29 H3         -0.5289    1.8773    0.9072 H         1 <0>         0.0536
     30 H4          0.5123   -0.3556   -0.8948 H         1 <0>         0.0604
     31 H5          0.5293   -0.3651    0.8851 H         1 <0>         0.0604
     32 H6         -1.9435   -0.1821    0.9097 H         1 <0>         0.0607
     33 H7         -1.9605   -0.1726   -0.8702 H         1 <0>         0.0606
     34 H8         -0.9024   -2.4150   -0.8923 H         1 <0>         0.0606
     35 H9         -0.8854   -2.4246    0.8875 H         1 <0>         0.0607
     36 H10        -3.3581   -2.2415    0.9121 H         1 <0>         0.0607
     37 H11        -3.3751   -2.2320   -0.8677 H         1 <0>         0.0606
     38 H12        -2.3170   -4.4744   -0.8899 H         1 <0>         0.0607
     39 H13        -2.3000   -4.4840    0.8900 H         1 <0>         0.0608
     40 H14        -4.7728   -4.3010    0.9146 H         1 <0>         0.0608
     41 H15        -4.7898   -4.2914   -0.8653 H         1 <0>         0.0607
     42 H16        -3.7316   -6.5338   -0.8874 H         1 <0>         0.0611
     43 H17        -3.7146   -6.5434    0.8924 H         1 <0>         0.0614
     44 H18        -6.1874   -6.3604    0.9170 H         1 <0>         0.0617
     45 H19        -6.2044   -6.3508   -0.8628 H         1 <0>         0.0614
     46 H20        -5.1463   -8.5933   -0.8850 H         1 <0>         0.0633
     47 H21        -5.1293   -8.6028    0.8949 H         1 <0>         0.0636
     48 H22        -7.6020   -8.4198    0.9195 H         1 <0>         0.0658
     49 H23        -7.6190   -8.4102   -0.8604 H         1 <0>         0.0654
     50 H24        -6.5609  -10.6527   -0.8825 H         1 <0>         0.0739
     51 H25        -6.5439  -10.6622    0.8973 H         1 <0>         0.0742
     52 H26        -9.0167  -10.4792    0.9219 H         1 <0>         0.0873
     53 H27        -9.0337  -10.4697   -0.8579 H         1 <0>         0.0864
     54 H28        -7.9755  -12.7121   -0.8801 H         1 <0>         0.1341
     55 H29        -7.9586  -12.7217    0.8998 H         1 <0>         0.1328
     56 H30       -10.3362  -12.5436    0.8573 H         1 <0>         0.4348
     57 H31        -9.2453  -14.6957    0.8567 H         1 <0>         0.1619
     58 H32        -8.3558  -14.3119   -1.6311 H         1 <0>         0.1554
     59 H33       -11.7584  -16.2851   -2.2080 H         1 <0>         0.0904
     60 H34       -12.2458  -16.7932    0.0999 H         1 <0>         0.0917
     61 H35       -11.9186  -14.3684   -0.5692 H         1 <0>         0.0959
     62 H36       -12.6553  -14.9278    1.6352 H         1 <0>         0.4079
     63 H37       -10.2065  -17.9585    0.5772 H         1 <0>         0.4014
     64 H38       -10.4505  -18.2088   -2.7264 H         1 <0>         0.3938
     65 H39        -8.6286  -17.2140   -3.1562 H         1 <0>         0.0767
     66 H40        -9.6482  -16.0830   -4.0778 H         1 <0>         0.0735
     67 H41        -7.3350  -15.5009   -4.2039 H         1 <0>         0.3990
     68 H42       -10.3519  -12.5348   -0.7903 H         1 <0>         0.4234
@<TRIPOS>BOND
     1    1    2 1
     2    1   27 1
     3    1   28 1
     4    1   29 1
     5    2    3 1
     6    2   30 1
     7    2   31 1
     8    3    4 1
     9    3   32 1
    10    3   33 1
    11    4    5 1
    12    4   34 1
    13    4   35 1
    14    5    6 1
    15    5   36 1
    16    5   37 1
    17    6    7 1
    18    6   38 1
    19    6   39 1
    20    7    8 1
    21    7   40 1
    22    7   41 1
    23    8    9 1
    24    8   42 1
    25    8   43 1
    26    9   10 1
    27    9   44 1
    28    9   45 1
    29   10   11 1
    30   10   46 1
    31   10   47 1
    32   11   12 1
    33   11   48 1
    34   11   49 1
    35   12   13 1
    36   12   50 1
    37   12   51 1
    38   13   14 1
    39   13   52 1
    40   13   53 1
    41   14   15 1
    42   14   54 1
    43   14   55 1
    44   15   16 1
    45   15   56 1
    46   15   68 1
    47   16   21 1
    48   16   17 1
    49   16   57 1
    50   17   18 2
    51   17   58 1
    52   18   19 1
    53   18   25 1
    54   19   20 1
    55   19   24 1
    56   19   59 1
    57   20   21 1
    58   20   23 1
    59   20   60 1
    60   21   22 1
    61   21   61 1
    62   22   62 1
    63   23   63 1
    64   24   64 1
    65   25   26 1
    66   25   65 1
    67   25   66 1
    68   26   67 1
@<TRIPOS>MOLECULE
CHEMBL170431__2
   68    68     0     0     0
SMALL
USER_CHARGES

@<TRIPOS>ATOM
      1 C1         -0.0187    1.5258    0.0104 C.3       1 <0>        -0.1549
      2 C2          0.0021   -0.0041    0.0020 C.3       1 <0>        -0.1261
      3 C3         -1.4333   -0.5336    0.0129 C.3       1 <0>        -0.1214
      4 C4         -1.4126   -2.0635    0.0045 C.3       1 <0>        -0.1213
      5 C5         -2.8479   -2.5931    0.0153 C.3       1 <0>        -0.1209
      6 C6         -2.8272   -4.1229    0.0069 C.3       1 <0>        -0.1209
      7 C7         -4.2626   -4.6525    0.0178 C.3       1 <0>        -0.1209
      8 C8         -4.2418   -6.1823    0.0094 C.3       1 <0>        -0.1211
      9 C9         -5.6772   -6.7119    0.0202 C.3       1 <0>        -0.1212
     10 C10        -5.6565   -8.2417    0.0118 C.3       1 <0>        -0.1216
     11 C11        -7.0918   -8.7713    0.0227 C.3       1 <0>        -0.1213
     12 C12        -7.0711  -10.3012    0.0143 C.3       1 <0>        -0.1177
     13 C13        -8.5065  -10.8307    0.0251 C.3       1 <0>        -0.1477
     14 C14        -8.4857  -12.3606    0.0167 C.3       1 <0>        -0.0149
     15 N1         -9.8639  -12.8690    0.0271 N.4       1 <0>        -0.4978
     16 C15        -9.8440  -14.3379    0.0191 C.3       1 <0>         0.0829
     17 C16        -9.2357  -14.8201   -1.2653 C.2       1 <0>        -0.2013
     18 C17        -9.7004  -15.8069   -1.9623 C.2       1 <0>        -0.0769
     19 C18       -10.9179  -16.6006   -1.5884 C.3       1 <0>         0.1045
     20 C19       -11.2617  -16.3753   -0.1144 C.3       1 <0>         0.0919
     21 C20       -11.2739  -14.8653    0.1557 C.3       1 <0>         0.0955
     22 O1        -12.1191  -14.2138   -0.7947 O.3       1 <0>        -0.5666
     23 O2        -12.5506  -16.9243    0.1676 O.3       1 <0>        -0.5549
     24 O3        -10.6639  -17.9895   -1.8086 O.3       1 <0>        -0.5541
     25 C21        -8.9733  -16.1824   -3.2277 C.3       1 <0>         0.0935
     26 O4         -7.8507  -15.3165   -3.4069 O.3       1 <0>        -0.5733
     27 H1          1.0039    1.9031    0.0027 H         1 <0>         0.0545
     28 H2         -0.5459    1.8868   -0.8726 H         1 <0>         0.0536
     29 H3         -0.5289    1.8773    0.9072 H         1 <0>         0.0536
     30 H4          0.5123   -0.3556   -0.8948 H         1 <0>         0.0604
     31 H5          0.5293   -0.3651    0.8851 H         1 <0>         0.0604
     32 H6         -1.9435   -0.1821    0.9097 H         1 <0>         0.0607
     33 H7         -1.9605   -0.1726   -0.8702 H         1 <0>         0.0607
     34 H8         -0.9024   -2.4150   -0.8923 H         1 <0>         0.0607
     35 H9         -0.8854   -2.4246    0.8875 H         1 <0>         0.0607
     36 H10        -3.3581   -2.2415    0.9121 H         1 <0>         0.0606
     37 H11        -3.3751   -2.2320   -0.8677 H         1 <0>         0.0606
     38 H12        -2.3170   -4.4744   -0.8899 H         1 <0>         0.0607
     39 H13        -2.3000   -4.4840    0.8900 H         1 <0>         0.0608
     40 H14        -4.7728   -4.3010    0.9146 H         1 <0>         0.0608
     41 H15        -4.7898   -4.2914   -0.8653 H         1 <0>         0.0608
     42 H16        -3.7316   -6.5338   -0.8874 H         1 <0>         0.0612
     43 H17        -3.7146   -6.5434    0.8924 H         1 <0>         0.0612
     44 H18        -6.1874   -6.3604    0.9170 H         1 <0>         0.0616
     45 H19        -6.2044   -6.3508   -0.8628 H         1 <0>         0.0616
     46 H20        -5.1463   -8.5933   -0.8850 H         1 <0>         0.0634
     47 H21        -5.1293   -8.6028    0.8949 H         1 <0>         0.0633
     48 H22        -7.6020   -8.4198    0.9195 H         1 <0>         0.0658
     49 H23        -7.6190   -8.4102   -0.8604 H         1 <0>         0.0658
     50 H24        -6.5609  -10.6527   -0.8825 H         1 <0>         0.0740
     51 H25        -6.5439  -10.6622    0.8973 H         1 <0>         0.0737
     52 H26        -9.0167  -10.4792    0.9219 H         1 <0>         0.0872
     53 H27        -9.0337  -10.4697   -0.8579 H         1 <0>         0.0874
     54 H28        -7.9755  -12.7121   -0.8801 H         1 <0>         0.1348
     55 H29        -7.9586  -12.7217    0.8998 H         1 <0>         0.1323
     56 H30       -10.3362  -12.5436    0.8573 H         1 <0>         0.4287
     57 H31        -9.2453  -14.6957    0.8567 H         1 <0>         0.1584
     58 H32        -8.3558  -14.3119   -1.6311 H         1 <0>         0.1531
     59 H33       -11.7582  -16.2864   -2.2075 H         1 <0>         0.0953
     60 H34       -10.5107  -16.8539    0.5143 H         1 <0>         0.0870
     61 H35       -11.6391  -14.6767    1.1652 H         1 <0>         0.1034
     62 H36       -13.0417  -14.5015   -0.7628 H         1 <0>         0.4155
     63 H37       -12.6180  -17.8747    0.0025 H         1 <0>         0.4059
     64 H38       -10.4491  -18.2095   -2.7254 H         1 <0>         0.3918
     65 H39        -8.6286  -17.2140   -3.1562 H         1 <0>         0.0767
     66 H40        -9.6482  -16.0830   -4.0778 H         1 <0>         0.0746
     67 H41        -7.3350  -15.5009   -4.2039 H         1 <0>         0.3989
     68 H42       -10.3519  -12.5348   -0.7903 H         1 <0>         0.4360
@<TRIPOS>BOND
     1    1    2 1
     2    1   27 1
     3    1   28 1
     4    1   29 1
     5    2    3 1
     6    2   30 1
     7    2   31 1
     8    3    4 1
     9    3   32 1
    10    3   33 1
    11    4    5 1
    12    4   34 1
    13    4   35 1
    14    5    6 1
    15    5   36 1
    16    5   37 1
    17    6    7 1
    18    6   38 1
    19    6   39 1
    20    7    8 1
    21    7   40 1
    22    7   41 1
    23    8    9 1
    24    8   42 1
    25    8   43 1
    26    9   10 1
    27    9   44 1
    28    9   45 1
    29   10   11 1
    30   10   46 1
    31   10   47 1
    32   11   12 1
    33   11   48 1
    34   11   49 1
    35   12   13 1
    36   12   50 1
    37   12   51 1
    38   13   14 1
    39   13   52 1
    40   13   53 1
    41   14   15 1
    42   14   54 1
    43   14   55 1
    44   15   16 1
    45   15   56 1
    46   15   68 1
    47   16   21 1
    48   16   17 1
    49   16   57 1
    50   17   18 2
    51   17   58 1
    52   18   19 1
    53   18   25 1
    54   19   20 1
    55   19   24 1
    56   19   59 1
    57   20   21 1
    58   20   23 1
    59   20   60 1
    60   21   22 1
    61   21   61 1
    62   22   62 1
    63   23   63 1
    64   24   64 1
    65   25   26 1
    66   25   65 1
    67   25   66 1
    68   26   67 1
@<TRIPOS>MOLECULE
CHEMBL170431__3
   68    68     0     0     0
SMALL
USER_CHARGES

@<TRIPOS>ATOM
      1 C1         -0.0187    1.5258    0.0104 C.3       1 <0>        -0.1549
      2 C2          0.0021   -0.0041    0.0020 C.3       1 <0>        -0.1261
      3 C3         -1.4333   -0.5336    0.0129 C.3       1 <0>        -0.1214
      4 C4         -1.4126   -2.0635    0.0045 C.3       1 <0>        -0.1213
      5 C5         -2.8479   -2.5931    0.0153 C.3       1 <0>        -0.1208
      6 C6         -2.8272   -4.1229    0.0069 C.3       1 <0>        -0.1209
      7 C7         -4.2626   -4.6525    0.0178 C.3       1 <0>        -0.1209
      8 C8         -4.2418   -6.1823    0.0094 C.3       1 <0>        -0.1211
      9 C9         -5.6772   -6.7119    0.0202 C.3       1 <0>        -0.1212
     10 C10        -5.6565   -8.2417    0.0118 C.3       1 <0>        -0.1217
     11 C11        -7.0918   -8.7713    0.0227 C.3       1 <0>        -0.1212
     12 C12        -7.0711  -10.3012    0.0143 C.3       1 <0>        -0.1178
     13 C13        -8.5065  -10.8307    0.0251 C.3       1 <0>        -0.1480
     14 C14        -8.4857  -12.3606    0.0167 C.3       1 <0>        -0.0139
     15 N1         -9.8639  -12.8690    0.0271 N.4       1 <0>        -0.5009
     16 C15        -9.8440  -14.3379    0.0191 C.3       1 <0>         0.0808
     17 C16        -9.2357  -14.8201   -1.2653 C.2       1 <0>        -0.2010
     18 C17        -9.7004  -15.8069   -1.9623 C.2       1 <0>        -0.0848
     19 C18       -10.9184  -16.6000   -1.5889 C.3       1 <0>         0.0990
     20 C19       -11.2624  -16.3750   -0.1148 C.3       1 <0>         0.0943
     21 C20       -11.2739  -14.8653    0.1557 C.3       1 <0>         0.0981
     22 O1        -11.7527  -14.6180    1.4792 O.3       1 <0>        -0.5577
     23 O2        -12.5516  -16.9233    0.1667 O.3       1 <0>        -0.5545
     24 O3        -10.6653  -17.9890   -1.8096 O.3       1 <0>        -0.5493
     25 C21        -8.9733  -16.1824   -3.2277 C.3       1 <0>         0.0933
     26 O4         -7.8507  -15.3165   -3.4069 O.3       1 <0>        -0.5734
     27 H1          1.0039    1.9031    0.0027 H         1 <0>         0.0545
     28 H2         -0.5459    1.8868   -0.8726 H         1 <0>         0.0535
     29 H3         -0.5289    1.8773    0.9072 H         1 <0>         0.0536
     30 H4          0.5123   -0.3556   -0.8948 H         1 <0>         0.0604
     31 H5          0.5293   -0.3651    0.8851 H         1 <0>         0.0604
     32 H6         -1.9435   -0.1821    0.9097 H         1 <0>         0.0607
     33 H7         -1.9605   -0.1726   -0.8702 H         1 <0>         0.0607
     34 H8         -0.9024   -2.4150   -0.8923 H         1 <0>         0.0606
     35 H9         -0.8854   -2.4246    0.8875 H         1 <0>         0.0607
     36 H10        -3.3581   -2.2415    0.9121 H         1 <0>         0.0607
     37 H11        -3.3751   -2.2320   -0.8677 H         1 <0>         0.0606
     38 H12        -2.3170   -4.4744   -0.8899 H         1 <0>         0.0607
     39 H13        -2.3000   -4.4840    0.8900 H         1 <0>         0.0608
     40 H14        -4.7728   -4.3010    0.9146 H         1 <0>         0.0609
     41 H15        -4.7898   -4.2914   -0.8653 H         1 <0>         0.0607
     42 H16        -3.7316   -6.5338   -0.8874 H         1 <0>         0.0611
     43 H17        -3.7146   -6.5434    0.8924 H         1 <0>         0.0613
     44 H18        -6.1874   -6.3604    0.9170 H         1 <0>         0.0617
     45 H19        -6.2044   -6.3508   -0.8628 H         1 <0>         0.0615
     46 H20        -5.1463   -8.5933   -0.8850 H         1 <0>         0.0633
     47 H21        -5.1293   -8.6028    0.8949 H         1 <0>         0.0635
     48 H22        -7.6020   -8.4198    0.9195 H         1 <0>         0.0660
     49 H23        -7.6190   -8.4102   -0.8604 H         1 <0>         0.0656
     50 H24        -6.5609  -10.6527   -0.8825 H         1 <0>         0.0740
     51 H25        -6.5439  -10.6622    0.8973 H         1 <0>         0.0741
     52 H26        -9.0167  -10.4792    0.9219 H         1 <0>         0.0879
     53 H27        -9.0337  -10.4697   -0.8579 H         1 <0>         0.0871
     54 H28        -7.9755  -12.7121   -0.8801 H         1 <0>         0.1351
     55 H29        -7.9586  -12.7217    0.8998 H         1 <0>         0.1334
     56 H30       -10.3362  -12.5436    0.8573 H         1 <0>         0.4364
     57 H31        -9.2453  -14.6957    0.8567 H         1 <0>         0.1571
     58 H32        -8.3558  -14.3119   -1.6311 H         1 <0>         0.1594
     59 H33       -11.7584  -16.2851   -2.2080 H         1 <0>         0.0937
     60 H34       -10.5118  -16.8542    0.5138 H         1 <0>         0.0877
     61 H35       -11.9186  -14.3684   -0.5692 H         1 <0>         0.0900
     62 H36       -12.6553  -14.9278    1.6352 H         1 <0>         0.4162
     63 H37       -12.6196  -17.8736    0.0012 H         1 <0>         0.4071
     64 H38       -10.4505  -18.2088   -2.7264 H         1 <0>         0.3928
     65 H39        -8.6286  -17.2140   -3.1562 H         1 <0>         0.0789
     66 H40        -9.6482  -16.0830   -4.0778 H         1 <0>         0.0762
     67 H41        -7.3350  -15.5009   -4.2039 H         1 <0>         0.4002
     68 H42       -10.3519  -12.5348   -0.7903 H         1 <0>         0.4262
@<TRIPOS>BOND
     1    1    2 1
     2    1   27 1
     3    1   28 1
     4    1   29 1
     5    2    3 1
     6    2   30 1
     7    2   31 1
     8    3    4 1
     9    3   32 1
    10    3   33 1
    11    4    5 1
    12    4   34 1
    13    4   35 1
    14    5    6 1
    15    5   36 1
    16    5   37 1
    17    6    7 1
    18    6   38 1
    19    6   39 1
    20    7    8 1
    21    7   40 1
    22    7   41 1
    23    8    9 1
    24    8   42 1
    25    8   43 1
    26    9   10 1
    27    9   44 1
    28    9   45 1
    29   10   11 1
    30   10   46 1
    31   10   47 1
    32   11   12 1
    33   11   48 1
    34   11   49 1
    35   12   13 1
    36   12   50 1
    37   12   51 1
    38   13   14 1
    39   13   52 1
    40   13   53 1
    41   14   15 1
    42   14   54 1
    43   14   55 1
    44   15   16 1
    45   15   56 1
    46   15   68 1
    47   16   21 1
    48   16   17 1
    49   16   57 1
    50   17   18 2
    51   17   58 1
    52   18   19 1
    53   18   25 1
    54   19   20 1
    55   19   24 1
    56   19   59 1
    57   20   21 1
    58   20   23 1
    59   20   60 1
    60   21   22 1
    61   21   61 1
    62   22   62 1
    63   23   63 1
    64   24   64 1
    65   25   26 1
    66   25   65 1
    67   25   66 1
    68   26   67 1
@<TRIPOS>MOLECULE
CHEMBL170431__4
   68    68     0     0     0
SMALL
USER_CHARGES

@<TRIPOS>ATOM
      1 C1         -0.0187    1.5258    0.0104 C.3       1 <0>        -0.1549
      2 C2          0.0021   -0.0041    0.0020 C.3       1 <0>        -0.1261
      3 C3         -1.4333   -0.5336    0.0129 C.3       1 <0>        -0.1214
      4 C4         -1.4126   -2.0635    0.0045 C.3       1 <0>        -0.1213
      5 C5         -2.8479   -2.5931    0.0153 C.3       1 <0>        -0.1209
      6 C6         -2.8272   -4.1229    0.0069 C.3       1 <0>        -0.1208
      7 C7         -4.2626   -4.6525    0.0178 C.3       1 <0>        -0.1209
      8 C8         -4.2418   -6.1823    0.0094 C.3       1 <0>        -0.1211
      9 C9         -5.6772   -6.7119    0.0202 C.3       1 <0>        -0.1211
     10 C10        -5.6565   -8.2417    0.0118 C.3       1 <0>        -0.1216
     11 C11        -7.0918   -8.7713    0.0227 C.3       1 <0>        -0.1211
     12 C12        -7.0711  -10.3012    0.0143 C.3       1 <0>        -0.1177
     13 C13        -8.5065  -10.8307    0.0251 C.3       1 <0>        -0.1474
     14 C14        -8.4857  -12.3606    0.0167 C.3       1 <0>        -0.0145
     15 N1         -9.8639  -12.8690    0.0271 N.4       1 <0>        -0.5000
     16 C15        -9.8440  -14.3379    0.0191 C.3       1 <0>         0.0855
     17 C16        -9.2357  -14.8201   -1.2653 C.2       1 <0>        -0.1756
     18 C17        -9.7004  -15.8069   -1.9623 C.2       1 <0>        -0.0893
     19 C18       -10.9179  -16.6006   -1.5884 C.3       1 <0>         0.1100
     20 C19       -11.2617  -16.3753   -0.1144 C.3       1 <0>         0.0858
     21 C20       -11.2739  -14.8653    0.1557 C.3       1 <0>         0.0972
     22 O1        -12.1191  -14.2138   -0.7947 O.3       1 <0>        -0.5478
     23 O2        -10.2772  -17.0027    0.7098 O.3       1 <0>        -0.5522
     24 O3        -12.0195  -16.1887   -2.4000 O.3       1 <0>        -0.5396
     25 C21        -8.9733  -16.1824   -3.2277 C.3       1 <0>         0.0976
     26 O4         -7.8507  -15.3165   -3.4069 O.3       1 <0>        -0.5743
     27 H1          1.0039    1.9031    0.0027 H         1 <0>         0.0545
     28 H2         -0.5459    1.8868   -0.8726 H         1 <0>         0.0535
     29 H3         -0.5289    1.8773    0.9072 H         1 <0>         0.0536
     30 H4          0.5123   -0.3556   -0.8948 H         1 <0>         0.0604
     31 H5          0.5293   -0.3651    0.8851 H         1 <0>         0.0604
     32 H6         -1.9435   -0.1821    0.9097 H         1 <0>         0.0607
     33 H7         -1.9605   -0.1726   -0.8702 H         1 <0>         0.0607
     34 H8         -0.9024   -2.4150   -0.8923 H         1 <0>         0.0607
     35 H9         -0.8854   -2.4246    0.8875 H         1 <0>         0.0607
     36 H10        -3.3581   -2.2415    0.9121 H         1 <0>         0.0606
     37 H11        -3.3751   -2.2320   -0.8677 H         1 <0>         0.0606
     38 H12        -2.3170   -4.4744   -0.8899 H         1 <0>         0.0607
     39 H13        -2.3000   -4.4840    0.8900 H         1 <0>         0.0607
     40 H14        -4.7728   -4.3010    0.9146 H         1 <0>         0.0608
     41 H15        -4.7898   -4.2914   -0.8653 H         1 <0>         0.0608
     42 H16        -3.7316   -6.5338   -0.8874 H         1 <0>         0.0612
     43 H17        -3.7146   -6.5434    0.8924 H         1 <0>         0.0612
     44 H18        -6.1874   -6.3604    0.9170 H         1 <0>         0.0616
     45 H19        -6.2044   -6.3508   -0.8628 H         1 <0>         0.0616
     46 H20        -5.1463   -8.5933   -0.8850 H         1 <0>         0.0633
     47 H21        -5.1293   -8.6028    0.8949 H         1 <0>         0.0633
     48 H22        -7.6020   -8.4198    0.9195 H         1 <0>         0.0656
     49 H23        -7.6190   -8.4102   -0.8604 H         1 <0>         0.0657
     50 H24        -6.5609  -10.6527   -0.8825 H         1 <0>         0.0737
     51 H25        -6.5439  -10.6622    0.8973 H         1 <0>         0.0736
     52 H26        -9.0167  -10.4792    0.9219 H         1 <0>         0.0867
     53 H27        -9.0337  -10.4697   -0.8579 H         1 <0>         0.0868
     54 H28        -7.9755  -12.7121   -0.8801 H         1 <0>         0.1332
     55 H29        -7.9586  -12.7217    0.8998 H         1 <0>         0.1313
     56 H30       -10.3362  -12.5436    0.8573 H         1 <0>         0.4272
     57 H31        -9.2453  -14.6957    0.8567 H         1 <0>         0.1601
     58 H32        -8.3558  -14.3119   -1.6311 H         1 <0>         0.1479
     59 H33       -10.7242  -17.6600   -1.7564 H         1 <0>         0.0787
     60 H34       -12.2448  -16.7941    0.1007 H         1 <0>         0.0940
     61 H35       -11.6391  -14.6767    1.1652 H         1 <0>         0.0947
     62 H36       -13.0417  -14.5015   -0.7628 H         1 <0>         0.4100
     63 H37       -10.2047  -17.9579    0.5781 H         1 <0>         0.3998
     64 H38       -11.8772  -16.3124   -3.3484 H         1 <0>         0.3898
     65 H39        -8.6286  -17.2140   -3.1562 H         1 <0>         0.0716
     66 H40        -9.6482  -16.0830   -4.0778 H         1 <0>         0.0701
     67 H41        -7.3350  -15.5009   -4.2039 H         1 <0>         0.3974
     68 H42       -10.3519  -12.5348   -0.7903 H         1 <0>         0.4343
@<TRIPOS>BOND
     1    1    2 1
     2    1   27 1
     3    1   28 1
     4    1   29 1
     5    2    3 1
     6    2   30 1
     7    2   31 1
     8    3    4 1
     9    3   32 1
    10    3   33 1
    11    4    5 1
    12    4   34 1
    13    4   35 1
    14    5    6 1
    15    5   36 1
    16    5   37 1
    17    6    7 1
    18    6   38 1
    19    6   39 1
    20    7    8 1
    21    7   40 1
    22    7   41 1
    23    8    9 1
    24    8   42 1
    25    8   43 1
    26    9   10 1
    27    9   44 1
    28    9   45 1
    29   10   11 1
    30   10   46 1
    31   10   47 1
    32   11   12 1
    33   11   48 1
    34   11   49 1
    35   12   13 1
    36   12   50 1
    37   12   51 1
    38   13   14 1
    39   13   52 1
    40   13   53 1
    41   14   15 1
    42   14   54 1
    43   14   55 1
    44   15   16 1
    45   15   56 1
    46   15   68 1
    47   16   21 1
    48   16   17 1
    49   16   57 1
    50   17   18 2
    51   17   58 1
    52   18   19 1
    53   18   25 1
    54   19   20 1
    55   19   24 1
    56   19   59 1
    57   20   21 1
    58   20   23 1
    59   20   60 1
    60   21   22 1
    61   21   61 1
    62   22   62 1
    63   23   63 1
    64   24   64 1
    65   25   26 1
    66   25   65 1
    67   25   66 1
    68   26   67 1
@<TRIPOS>MOLECULE
CHEMBL170431__5
   68    68     0     0     0
SMALL
USER_CHARGES

@<TRIPOS>ATOM
      1 C1         -0.0187    1.5258    0.0104 C.3       1 <0>        -0.1549
      2 C2          0.0021   -0.0041    0.0020 C.3       1 <0>        -0.1261
      3 C3         -1.4333   -0.5336    0.0129 C.3       1 <0>        -0.1214
      4 C4         -1.4126   -2.0635    0.0045 C.3       1 <0>        -0.1213
      5 C5         -2.8479   -2.5931    0.0153 C.3       1 <0>        -0.1208
      6 C6         -2.8272   -4.1229    0.0069 C.3       1 <0>        -0.1209
      7 C7         -4.2626   -4.6525    0.0178 C.3       1 <0>        -0.1209
      8 C8         -4.2418   -6.1823    0.0094 C.3       1 <0>        -0.1211
      9 C9         -5.6772   -6.7119    0.0202 C.3       1 <0>        -0.1211
     10 C10        -5.6565   -8.2417    0.0118 C.3       1 <0>        -0.1216
     11 C11        -7.0918   -8.7713    0.0227 C.3       1 <0>        -0.1211
     12 C12        -7.0711  -10.3012    0.0143 C.3       1 <0>        -0.1178
     13 C13        -8.5065  -10.8307    0.0251 C.3       1 <0>        -0.1478
     14 C14        -8.4857  -12.3606    0.0167 C.3       1 <0>        -0.0136
     15 N1         -9.8639  -12.8690    0.0271 N.4       1 <0>        -0.5033
     16 C15        -9.8440  -14.3379    0.0191 C.3       1 <0>         0.0822
     17 C16        -9.2357  -14.8201   -1.2653 C.2       1 <0>        -0.1761
     18 C17        -9.7004  -15.8069   -1.9623 C.2       1 <0>        -0.0959
     19 C18       -10.9184  -16.6000   -1.5889 C.3       1 <0>         0.1012
     20 C19       -11.2624  -16.3750   -0.1148 C.3       1 <0>         0.0900
     21 C20       -11.2739  -14.8653    0.1557 C.3       1 <0>         0.0993
     22 O1        -11.7527  -14.6180    1.4792 O.3       1 <0>        -0.5594
     23 O2        -10.2784  -17.0033    0.7093 O.3       1 <0>        -0.5456
     24 O3        -12.0197  -16.1871   -2.4006 O.3       1 <0>        -0.5489
     25 C21        -8.9733  -16.1824   -3.2277 C.3       1 <0>         0.0975
     26 O4         -7.8507  -15.3165   -3.4069 O.3       1 <0>        -0.5744
     27 H1          1.0039    1.9031    0.0027 H         1 <0>         0.0545
     28 H2         -0.5459    1.8868   -0.8726 H         1 <0>         0.0535
     29 H3         -0.5289    1.8773    0.9072 H         1 <0>         0.0536
     30 H4          0.5123   -0.3556   -0.8948 H         1 <0>         0.0604
     31 H5          0.5293   -0.3651    0.8851 H         1 <0>         0.0604
     32 H6         -1.9435   -0.1821    0.9097 H         1 <0>         0.0607
     33 H7         -1.9605   -0.1726   -0.8702 H         1 <0>         0.0607
     34 H8         -0.9024   -2.4150   -0.8923 H         1 <0>         0.0606
     35 H9         -0.8854   -2.4246    0.8875 H         1 <0>         0.0607
     36 H10        -3.3581   -2.2415    0.9121 H         1 <0>         0.0607
     37 H11        -3.3751   -2.2320   -0.8677 H         1 <0>         0.0606
     38 H12        -2.3170   -4.4744   -0.8899 H         1 <0>         0.0607
     39 H13        -2.3000   -4.4840    0.8900 H         1 <0>         0.0608
     40 H14        -4.7728   -4.3010    0.9146 H         1 <0>         0.0609
     41 H15        -4.7898   -4.2914   -0.8653 H         1 <0>         0.0607
     42 H16        -3.7316   -6.5338   -0.8874 H         1 <0>         0.0611
     43 H17        -3.7146   -6.5434    0.8924 H         1 <0>         0.0613
     44 H18        -6.1874   -6.3604    0.9170 H         1 <0>         0.0617
     45 H19        -6.2044   -6.3508   -0.8628 H         1 <0>         0.0615
     46 H20        -5.1463   -8.5933   -0.8850 H         1 <0>         0.0632
     47 H21        -5.1293   -8.6028    0.8949 H         1 <0>         0.0635
     48 H22        -7.6020   -8.4198    0.9195 H         1 <0>         0.0659
     49 H23        -7.6190   -8.4102   -0.8604 H         1 <0>         0.0655
     50 H24        -6.5609  -10.6527   -0.8825 H         1 <0>         0.0738
     51 H25        -6.5439  -10.6622    0.8973 H         1 <0>         0.0740
     52 H26        -9.0167  -10.4792    0.9219 H         1 <0>         0.0874
     53 H27        -9.0337  -10.4697   -0.8579 H         1 <0>         0.0866
     54 H28        -7.9755  -12.7121   -0.8801 H         1 <0>         0.1337
     55 H29        -7.9586  -12.7217    0.8998 H         1 <0>         0.1326
     56 H30       -10.3362  -12.5436    0.8573 H         1 <0>         0.4350
     57 H31        -9.2453  -14.6957    0.8567 H         1 <0>         0.1609
     58 H32        -8.3558  -14.3119   -1.6311 H         1 <0>         0.1549
     59 H33       -10.7254  -17.6595   -1.7572 H         1 <0>         0.0871
     60 H34       -12.2458  -16.7932    0.0999 H         1 <0>         0.0958
     61 H35       -11.9186  -14.3684   -0.5692 H         1 <0>         0.1019
     62 H36       -12.6553  -14.9278    1.6352 H         1 <0>         0.4074
     63 H37       -10.2065  -17.9585    0.5772 H         1 <0>         0.3956
     64 H38       -11.8773  -16.3106   -3.3490 H         1 <0>         0.3944
     65 H39        -8.6286  -17.2140   -3.1562 H         1 <0>         0.0744
     66 H40        -9.6482  -16.0830   -4.0778 H         1 <0>         0.0718
     67 H41        -7.3350  -15.5009   -4.2039 H         1 <0>         0.3990
     68 H42       -10.3519  -12.5348   -0.7903 H         1 <0>         0.4245
@<TRIPOS>BOND
     1    1    2 1
     2    1   27 1
     3    1   28 1
     4    1   29 1
     5    2    3 1
     6    2   30 1
     7    2   31 1
     8    3    4 1
     9    3   32 1
    10    3   33 1
    11    4    5 1
    12    4   34 1
    13    4   35 1
    14    5    6 1
    15    5   36 1
    16    5   37 1
    17    6    7 1
    18    6   38 1
    19    6   39 1
    20    7    8 1
    21    7   40 1
    22    7   41 1
    23    8    9 1
    24    8   42 1
    25    8   43 1
    26    9   10 1
    27    9   44 1
    28    9   45 1
    29   10   11 1
    30   10   46 1
    31   10   47 1
    32   11   12 1
    33   11   48 1
    34   11   49 1
    35   12   13 1
    36   12   50 1
    37   12   51 1
    38   13   14 1
    39   13   52 1
    40   13   53 1
    41   14   15 1
    42   14   54 1
    43   14   55 1
    44   15   16 1
    45   15   56 1
    46   15   68 1
    47   16   21 1
    48   16   17 1
    49   16   57 1
    50   17   18 2
    51   17   58 1
    52   18   19 1
    53   18   25 1
    54   19   20 1
    55   19   24 1
    56   19   59 1
    57   20   21 1
    58   20   23 1
    59   20   60 1
    60   21   22 1
    61   21   61 1
    62   22   62 1
    63   23   63 1
    64   24   64 1
    65   25   26 1
    66   25   65 1
    67   25   66 1
    68   26   67 1
@<TRIPOS>MOLECULE
CHEMBL170431__6
   68    68     0     0     0
SMALL
USER_CHARGES

@<TRIPOS>ATOM
      1 C1         -0.0187    1.5258    0.0104 C.3       1 <0>        -0.1549
      2 C2          0.0021   -0.0041    0.0020 C.3       1 <0>        -0.1261
      3 C3         -1.4333   -0.5336    0.0129 C.3       1 <0>        -0.1214
      4 C4         -1.4126   -2.0635    0.0045 C.3       1 <0>        -0.1213
      5 C5         -2.8479   -2.5931    0.0153 C.3       1 <0>        -0.1209
      6 C6         -2.8272   -4.1229    0.0069 C.3       1 <0>        -0.1208
      7 C7         -4.2626   -4.6525    0.0178 C.3       1 <0>        -0.1209
      8 C8         -4.2418   -6.1823    0.0094 C.3       1 <0>        -0.1210
      9 C9         -5.6772   -6.7119    0.0202 C.3       1 <0>        -0.1212
     10 C10        -5.6565   -8.2417    0.0118 C.3       1 <0>        -0.1215
     11 C11        -7.0918   -8.7713    0.0227 C.3       1 <0>        -0.1214
     12 C12        -7.0711  -10.3012    0.0143 C.3       1 <0>        -0.1175
     13 C13        -8.5065  -10.8307    0.0251 C.3       1 <0>        -0.1479
     14 C14        -8.4857  -12.3606    0.0167 C.3       1 <0>        -0.0147
     15 N1         -9.8639  -12.8690    0.0271 N.4       1 <0>        -0.4971
     16 C15        -9.8440  -14.3379    0.0191 C.3       1 <0>         0.0816
     17 C16        -9.2357  -14.8201   -1.2653 C.2       1 <0>        -0.1889
     18 C17        -9.7004  -15.8069   -1.9623 C.2       1 <0>        -0.0847
     19 C18       -10.9184  -16.6000   -1.5889 C.3       1 <0>         0.1076
     20 C19       -11.2624  -16.3750   -0.1148 C.3       1 <0>         0.0884
     21 C20       -11.2739  -14.8653    0.1557 C.3       1 <0>         0.0949
     22 O1        -12.1191  -14.2138   -0.7947 O.3       1 <0>        -0.5529
     23 O2        -12.5516  -16.9233    0.1667 O.3       1 <0>        -0.5453
     24 O3        -12.0197  -16.1871   -2.4006 O.3       1 <0>        -0.5289
     25 C21        -8.9733  -16.1824   -3.2277 C.3       1 <0>         0.0967
     26 O4         -7.8507  -15.3165   -3.4069 O.3       1 <0>        -0.5747
     27 H1          1.0039    1.9031    0.0027 H         1 <0>         0.0545
     28 H2         -0.5459    1.8868   -0.8726 H         1 <0>         0.0536
     29 H3         -0.5289    1.8773    0.9072 H         1 <0>         0.0536
     30 H4          0.5123   -0.3556   -0.8948 H         1 <0>         0.0604
     31 H5          0.5293   -0.3651    0.8851 H         1 <0>         0.0604
     32 H6         -1.9435   -0.1821    0.9097 H         1 <0>         0.0607
     33 H7         -1.9605   -0.1726   -0.8702 H         1 <0>         0.0607
     34 H8         -0.9024   -2.4150   -0.8923 H         1 <0>         0.0607
     35 H9         -0.8854   -2.4246    0.8875 H         1 <0>         0.0607
     36 H10        -3.3581   -2.2415    0.9121 H         1 <0>         0.0607
     37 H11        -3.3751   -2.2320   -0.8677 H         1 <0>         0.0607
     38 H12        -2.3170   -4.4744   -0.8899 H         1 <0>         0.0607
     39 H13        -2.3000   -4.4840    0.8900 H         1 <0>         0.0607
     40 H14        -4.7728   -4.3010    0.9146 H         1 <0>         0.0608
     41 H15        -4.7898   -4.2914   -0.8653 H         1 <0>         0.0608
     42 H16        -3.7316   -6.5338   -0.8874 H         1 <0>         0.0612
     43 H17        -3.7146   -6.5434    0.8924 H         1 <0>         0.0612
     44 H18        -6.1874   -6.3604    0.9170 H         1 <0>         0.0617
     45 H19        -6.2044   -6.3508   -0.8628 H         1 <0>         0.0617
     46 H20        -5.1463   -8.5933   -0.8850 H         1 <0>         0.0633
     47 H21        -5.1293   -8.6028    0.8949 H         1 <0>         0.0632
     48 H22        -7.6020   -8.4198    0.9195 H         1 <0>         0.0658
     49 H23        -7.6190   -8.4102   -0.8604 H         1 <0>         0.0659
     50 H24        -6.5609  -10.6527   -0.8825 H         1 <0>         0.0738
     51 H25        -6.5439  -10.6622    0.8973 H         1 <0>         0.0735
     52 H26        -9.0167  -10.4792    0.9219 H         1 <0>         0.0871
     53 H27        -9.0337  -10.4697   -0.8579 H         1 <0>         0.0874
     54 H28        -7.9755  -12.7121   -0.8801 H         1 <0>         0.1341
     55 H29        -7.9586  -12.7217    0.8998 H         1 <0>         0.1316
     56 H30       -10.3362  -12.5436    0.8573 H         1 <0>         0.4285
     57 H31        -9.2453  -14.6957    0.8567 H         1 <0>         0.1556
     58 H32        -8.3558  -14.3119   -1.6311 H         1 <0>         0.1512
     59 H33       -10.7254  -17.6595   -1.7572 H         1 <0>         0.0785
     60 H34       -10.5118  -16.8542    0.5138 H         1 <0>         0.0882
     61 H35       -11.6391  -14.6767    1.1652 H         1 <0>         0.0940
     62 H36       -13.0417  -14.5015   -0.7628 H         1 <0>         0.4145
     63 H37       -12.6196  -17.8736    0.0012 H         1 <0>         0.3981
     64 H38       -11.8773  -16.3106   -3.3490 H         1 <0>         0.3838
     65 H39        -8.6286  -17.2140   -3.1562 H         1 <0>         0.0735
     66 H40        -9.6482  -16.0830   -4.0778 H         1 <0>         0.0725
     67 H41        -7.3350  -15.5009   -4.2039 H         1 <0>         0.3984
     68 H42       -10.3519  -12.5348   -0.7903 H         1 <0>         0.4368
@<TRIPOS>BOND
     1    1    2 1
     2    1   27 1
     3    1   28 1
     4    1   29 1
     5    2    3 1
     6    2   30 1
     7    2   31 1
     8    3    4 1
     9    3   32 1
    10    3   33 1
    11    4    5 1
    12    4   34 1
    13    4   35 1
    14    5    6 1
    15    5   36 1
    16    5   37 1
    17    6    7 1
    18    6   38 1
    19    6   39 1
    20    7    8 1
    21    7   40 1
    22    7   41 1
    23    8    9 1
    24    8   42 1
    25    8   43 1
    26    9   10 1
    27    9   44 1
    28    9   45 1
    29   10   11 1
    30   10   46 1
    31   10   47 1
    32   11   12 1
    33   11   48 1
    34   11   49 1
    35   12   13 1
    36   12   50 1
    37   12   51 1
    38   13   14 1
    39   13   52 1
    40   13   53 1
    41   14   15 1
    42   14   54 1
    43   14   55 1
    44   15   16 1
    45   15   56 1
    46   15   68 1
    47   16   21 1
    48   16   17 1
    49   16   57 1
    50   17   18 2
    51   17   58 1
    52   18   19 1
    53   18   25 1
    54   19   20 1
    55   19   24 1
    56   19   59 1
    57   20   21 1
    58   20   23 1
    59   20   60 1
    60   21   22 1
    61   21   61 1
    62   22   62 1
    63   23   63 1
    64   24   64 1
    65   25   26 1
    66   25   65 1
    67   25   66 1
    68   26   67 1
@<TRIPOS>MOLECULE
CHEMBL170431__7
   68    68     0     0     0
SMALL
USER_CHARGES

@<TRIPOS>ATOM
      1 C1         -0.0187    1.5258    0.0104 C.3       1 <0>        -0.1549
      2 C2          0.0021   -0.0041    0.0020 C.3       1 <0>        -0.1261
      3 C3         -1.4333   -0.5336    0.0129 C.3       1 <0>        -0.1214
      4 C4         -1.4126   -2.0635    0.0045 C.3       1 <0>        -0.1213
      5 C5         -2.8479   -2.5931    0.0153 C.3       1 <0>        -0.1209
      6 C6         -2.8272   -4.1229    0.0069 C.3       1 <0>        -0.1208
      7 C7         -4.2626   -4.6525    0.0178 C.3       1 <0>        -0.1209
      8 C8         -4.2418   -6.1823    0.0094 C.3       1 <0>        -0.1210
      9 C9         -5.6772   -6.7119    0.0202 C.3       1 <0>        -0.1212
     10 C10        -5.6565   -8.2417    0.0118 C.3       1 <0>        -0.1215
     11 C11        -7.0918   -8.7713    0.0227 C.3       1 <0>        -0.1213
     12 C12        -7.0711  -10.3012    0.0143 C.3       1 <0>        -0.1175
     13 C13        -8.5065  -10.8307    0.0251 C.3       1 <0>        -0.1483
     14 C14        -8.4857  -12.3606    0.0167 C.3       1 <0>        -0.0139
     15 N1         -9.8639  -12.8690    0.0271 N.4       1 <0>        -0.5005
     16 C15        -9.8440  -14.3379    0.0191 C.3       1 <0>         0.0796
     17 C16        -9.2357  -14.8201   -1.2653 C.2       1 <0>        -0.1892
     18 C17        -9.7004  -15.8069   -1.9623 C.2       1 <0>        -0.0913
     19 C18       -10.9184  -16.6000   -1.5889 C.3       1 <0>         0.0976
     20 C19       -11.2624  -16.3750   -0.1148 C.3       1 <0>         0.0946
     21 C20       -11.2739  -14.8653    0.1557 C.3       1 <0>         0.0958
     22 O1        -11.7527  -14.6180    1.4792 O.3       1 <0>        -0.5633
     23 O2        -12.5516  -16.9233    0.1667 O.3       1 <0>        -0.5445
     24 O3        -12.0197  -16.1871   -2.4006 O.3       1 <0>        -0.5387
     25 C21        -8.9733  -16.1824   -3.2277 C.3       1 <0>         0.0965
     26 O4         -7.8507  -15.3165   -3.4069 O.3       1 <0>        -0.5747
     27 H1          1.0039    1.9031    0.0027 H         1 <0>         0.0545
     28 H2         -0.5459    1.8868   -0.8726 H         1 <0>         0.0535
     29 H3         -0.5289    1.8773    0.9072 H         1 <0>         0.0536
     30 H4          0.5123   -0.3556   -0.8948 H         1 <0>         0.0604
     31 H5          0.5293   -0.3651    0.8851 H         1 <0>         0.0604
     32 H6         -1.9435   -0.1821    0.9097 H         1 <0>         0.0607
     33 H7         -1.9605   -0.1726   -0.8702 H         1 <0>         0.0607
     34 H8         -0.9024   -2.4150   -0.8923 H         1 <0>         0.0606
     35 H9         -0.8854   -2.4246    0.8875 H         1 <0>         0.0607
     36 H10        -3.3581   -2.2415    0.9121 H         1 <0>         0.0607
     37 H11        -3.3751   -2.2320   -0.8677 H         1 <0>         0.0606
     38 H12        -2.3170   -4.4744   -0.8899 H         1 <0>         0.0607
     39 H13        -2.3000   -4.4840    0.8900 H         1 <0>         0.0608
     40 H14        -4.7728   -4.3010    0.9146 H         1 <0>         0.0609
     41 H15        -4.7898   -4.2914   -0.8653 H         1 <0>         0.0608
     42 H16        -3.7316   -6.5338   -0.8874 H         1 <0>         0.0611
     43 H17        -3.7146   -6.5434    0.8924 H         1 <0>         0.0613
     44 H18        -6.1874   -6.3604    0.9170 H         1 <0>         0.0618
     45 H19        -6.2044   -6.3508   -0.8628 H         1 <0>         0.0616
     46 H20        -5.1463   -8.5933   -0.8850 H         1 <0>         0.0632
     47 H21        -5.1293   -8.6028    0.8949 H         1 <0>         0.0634
     48 H22        -7.6020   -8.4198    0.9195 H         1 <0>         0.0660
     49 H23        -7.6190   -8.4102   -0.8604 H         1 <0>         0.0657
     50 H24        -6.5609  -10.6527   -0.8825 H         1 <0>         0.0739
     51 H25        -6.5439  -10.6622    0.8973 H         1 <0>         0.0740
     52 H26        -9.0167  -10.4792    0.9219 H         1 <0>         0.0880
     53 H27        -9.0337  -10.4697   -0.8579 H         1 <0>         0.0872
     54 H28        -7.9755  -12.7121   -0.8801 H         1 <0>         0.1345
     55 H29        -7.9586  -12.7217    0.8998 H         1 <0>         0.1331
     56 H30       -10.3362  -12.5436    0.8573 H         1 <0>         0.4364
     57 H31        -9.2453  -14.6957    0.8567 H         1 <0>         0.1557
     58 H32        -8.3558  -14.3119   -1.6311 H         1 <0>         0.1583
     59 H33       -10.7254  -17.6595   -1.7572 H         1 <0>         0.0872
     60 H34       -10.5118  -16.8542    0.5138 H         1 <0>         0.0903
     61 H35       -11.9186  -14.3684   -0.5692 H         1 <0>         0.0962
     62 H36       -12.6553  -14.9278    1.6352 H         1 <0>         0.4154
     63 H37       -12.6196  -17.8736    0.0012 H         1 <0>         0.3995
     64 H38       -11.8773  -16.3106   -3.3490 H         1 <0>         0.3888
     65 H39        -8.6286  -17.2140   -3.1562 H         1 <0>         0.0764
     66 H40        -9.6482  -16.0830   -4.0778 H         1 <0>         0.0742
     67 H41        -7.3350  -15.5009   -4.2039 H         1 <0>         0.4000
     68 H42       -10.3519  -12.5348   -0.7903 H         1 <0>         0.4271
@<TRIPOS>BOND
     1    1    2 1
     2    1   27 1
     3    1   28 1
     4    1   29 1
     5    2    3 1
     6    2   30 1
     7    2   31 1
     8    3    4 1
     9    3   32 1
    10    3   33 1
    11    4    5 1
    12    4   34 1
    13    4   35 1
    14    5    6 1
    15    5   36 1
    16    5   37 1
    17    6    7 1
    18    6   38 1
    19    6   39 1
    20    7    8 1
    21    7   40 1
    22    7   41 1
    23    8    9 1
    24    8   42 1
    25    8   43 1
    26    9   10 1
    27    9   44 1
    28    9   45 1
    29   10   11 1
    30   10   46 1
    31   10   47 1
    32   11   12 1
    33   11   48 1
    34   11   49 1
    35   12   13 1
    36   12   50 1
    37   12   51 1
    38   13   14 1
    39   13   52 1
    40   13   53 1
    41   14   15 1
    42   14   54 1
    43   14   55 1
    44   15   16 1
    45   15   56 1
    46   15   68 1
    47   16   21 1
    48   16   17 1
    49   16   57 1
    50   17   18 2
    51   17   58 1
    52   18   19 1
    53   18   25 1
    54   19   20 1
    55   19   24 1
    56   19   59 1
    57   20   21 1
    58   20   23 1
    59   20   60 1
    60   21   22 1
    61   21   61 1
    62   22   62 1
    63   23   63 1
    64   24   64 1
    65   25   26 1
    66   25   65 1
    67   25   66 1
    68   26   67 1
@<TRIPOS>MOLECULE
CHEMBL170431__8
   68    68     0     0     0
SMALL
USER_CHARGES

@<TRIPOS>ATOM
      1 C1         -0.0187    1.5258    0.0104 C.3       1 <0>        -0.1549
      2 C2          0.0021   -0.0041    0.0020 C.3       1 <0>        -0.1261
      3 C3         -1.4333   -0.5336    0.0129 C.3       1 <0>        -0.1214
      4 C4         -1.4126   -2.0635    0.0045 C.3       1 <0>        -0.1213
      5 C5         -2.8479   -2.5931    0.0153 C.3       1 <0>        -0.1209
      6 C6         -2.8272   -4.1229    0.0069 C.3       1 <0>        -0.1208
      7 C7         -4.2626   -4.6525    0.0178 C.3       1 <0>        -0.1209
      8 C8         -4.2418   -6.1823    0.0094 C.3       1 <0>        -0.1210
      9 C9         -5.6772   -6.7119    0.0202 C.3       1 <0>        -0.1212
     10 C10        -5.6565   -8.2417    0.0118 C.3       1 <0>        -0.1215
     11 C11        -7.0918   -8.7713    0.0227 C.3       1 <0>        -0.1213
     12 C12        -7.0711  -10.3012    0.0143 C.3       1 <0>        -0.1175
     13 C13        -8.5065  -10.8307    0.0251 C.3       1 <0>        -0.1483
     14 C14        -8.4857  -12.3606    0.0167 C.3       1 <0>        -0.0139
     15 N1         -9.8639  -12.8690    0.0271 N.4       1 <0>        -0.5005
     16 C15        -9.8440  -14.3379    0.0191 C.3       1 <0>         0.0796
     17 C16        -9.2114  -14.8338    1.2863 C.2       1 <0>        -0.1893
     18 C17        -9.6628  -15.8281    1.9814 C.2       1 <0>        -0.0913
     19 C18       -10.8878  -16.6172    1.6228 C.3       1 <0>         0.0976
     20 C19       -11.2598  -16.3765    0.1581 C.3       1 <0>         0.0946
     21 C20       -11.2763  -14.8640   -0.0959 C.3       1 <0>         0.0958
     22 O1        -11.7803  -14.6025   -1.4073 O.3       1 <0>        -0.5633
     23 O2        -12.5542  -16.9218   -0.1046 O.3       1 <0>        -0.5445
     24 O3        -11.9733  -16.2132    2.4598 O.3       1 <0>        -0.5387
     25 C21        -8.9116  -16.2171    3.2286 C.3       1 <0>         0.0965
     26 O4         -7.7858  -15.3530    3.3956 O.3       1 <0>        -0.5747
     27 H1          1.0039    1.9031    0.0027 H         1 <0>         0.0545
     28 H2         -0.5459    1.8868   -0.8726 H         1 <0>         0.0536
     29 H3         -0.5289    1.8773    0.9072 H         1 <0>         0.0535
     30 H4          0.5123   -0.3556   -0.8948 H         1 <0>         0.0604
     31 H5          0.5293   -0.3651    0.8851 H         1 <0>         0.0604
     32 H6         -1.9435   -0.1821    0.9097 H         1 <0>         0.0607
     33 H7         -1.9605   -0.1726   -0.8702 H         1 <0>         0.0607
     34 H8         -0.9024   -2.4150   -0.8923 H         1 <0>         0.0607
     35 H9         -0.8854   -2.4246    0.8875 H         1 <0>         0.0606
     36 H10        -3.3581   -2.2415    0.9121 H         1 <0>         0.0606
     37 H11        -3.3751   -2.2320   -0.8677 H         1 <0>         0.0607
     38 H12        -2.3170   -4.4744   -0.8899 H         1 <0>         0.0608
     39 H13        -2.3000   -4.4840    0.8900 H         1 <0>         0.0607
     40 H14        -4.7728   -4.3010    0.9146 H         1 <0>         0.0608
     41 H15        -4.7898   -4.2914   -0.8653 H         1 <0>         0.0609
     42 H16        -3.7316   -6.5338   -0.8874 H         1 <0>         0.0612
     43 H17        -3.7146   -6.5434    0.8924 H         1 <0>         0.0611
     44 H18        -6.1874   -6.3604    0.9170 H         1 <0>         0.0616
     45 H19        -6.2044   -6.3508   -0.8628 H         1 <0>         0.0618
     46 H20        -5.1463   -8.5933   -0.8850 H         1 <0>         0.0634
     47 H21        -5.1293   -8.6028    0.8949 H         1 <0>         0.0632
     48 H22        -7.6020   -8.4198    0.9195 H         1 <0>         0.0657
     49 H23        -7.6190   -8.4102   -0.8604 H         1 <0>         0.0660
     50 H24        -6.5609  -10.6527   -0.8825 H         1 <0>         0.0740
     51 H25        -6.5439  -10.6622    0.8973 H         1 <0>         0.0739
     52 H26        -9.0167  -10.4792    0.9219 H         1 <0>         0.0872
     53 H27        -9.0337  -10.4697   -0.8579 H         1 <0>         0.0880
     54 H28        -7.9755  -12.7121   -0.8801 H         1 <0>         0.1331
     55 H29        -7.9586  -12.7217    0.8998 H         1 <0>         0.1345
     56 H30       -10.3362  -12.5436    0.8573 H         1 <0>         0.4271
     57 H31        -9.2614  -14.6866   -0.8337 H         1 <0>         0.1557
     58 H32        -8.3241  -14.3299    1.6402 H         1 <0>         0.1583
     59 H33       -10.6916  -17.6784    1.7760 H         1 <0>         0.0872
     60 H34       -10.5214  -16.8489   -0.4898 H         1 <0>         0.0903
     61 H35       -11.9070  -14.3749    0.6465 H         1 <0>         0.0962
     62 H36       -12.6857  -14.9107   -1.5494 H         1 <0>         0.4154
     63 H37       -12.6191  -17.8739    0.0519 H         1 <0>         0.3995
     64 H38       -11.8128  -16.3469    3.4039 H         1 <0>         0.3888
     65 H39        -9.5702  -16.1269    4.0924 H         1 <0>         0.0742
     66 H40        -8.5684  -17.2478    3.1394 H         1 <0>         0.0764
     67 H41        -7.2550  -15.5459    4.1806 H         1 <0>         0.4000
     68 H42       -10.3519  -12.5348   -0.7903 H         1 <0>         0.4363
@<TRIPOS>BOND
     1    1    2 1
     2    1   27 1
     3    1   28 1
     4    1   29 1
     5    2    3 1
     6    2   30 1
     7    2   31 1
     8    3    4 1
     9    3   32 1
    10    3   33 1
    11    4    5 1
    12    4   34 1
    13    4   35 1
    14    5    6 1
    15    5   36 1
    16    5   37 1
    17    6    7 1
    18    6   38 1
    19    6   39 1
    20    7    8 1
    21    7   40 1
    22    7   41 1
    23    8    9 1
    24    8   42 1
    25    8   43 1
    26    9   10 1
    27    9   44 1
    28    9   45 1
    29   10   11 1
    30   10   46 1
    31   10   47 1
    32   11   12 1
    33   11   48 1
    34   11   49 1
    35   12   13 1
    36   12   50 1
    37   12   51 1
    38   13   14 1
    39   13   52 1
    40   13   53 1
    41   14   15 1
    42   14   54 1
    43   14   55 1
    44   15   16 1
    45   15   56 1
    46   15   68 1
    47   16   21 1
    48   16   17 1
    49   16   57 1
    50   17   18 2
    51   17   58 1
    52   18   19 1
    53   18   25 1
    54   19   20 1
    55   19   24 1
    56   19   59 1
    57   20   21 1
    58   20   23 1
    59   20   60 1
    60   21   22 1
    61   21   61 1
    62   22   62 1
    63   23   63 1
    64   24   64 1
    65   25   26 1
    66   25   65 1
    67   25   66 1
    68   26   67 1
@<TRIPOS>MOLECULE
CHEMBL170431__9
   68    68     0     0     0
SMALL
USER_CHARGES

@<TRIPOS>ATOM
      1 C1         -0.0187    1.5258    0.0104 C.3       1 <0>        -0.1549
      2 C2          0.0021   -0.0041    0.0020 C.3       1 <0>        -0.1261
      3 C3         -1.4333   -0.5336    0.0129 C.3       1 <0>        -0.1214
      4 C4         -1.4126   -2.0635    0.0045 C.3       1 <0>        -0.1213
      5 C5         -2.8479   -2.5931    0.0153 C.3       1 <0>        -0.1209
      6 C6         -2.8272   -4.1229    0.0069 C.3       1 <0>        -0.1208
      7 C7         -4.2626   -4.6525    0.0178 C.3       1 <0>        -0.1209
      8 C8         -4.2418   -6.1823    0.0094 C.3       1 <0>        -0.1210
      9 C9         -5.6772   -6.7119    0.0202 C.3       1 <0>        -0.1212
     10 C10        -5.6565   -8.2417    0.0118 C.3       1 <0>        -0.1215
     11 C11        -7.0918   -8.7713    0.0227 C.3       1 <0>        -0.1214
     12 C12        -7.0711  -10.3012    0.0143 C.3       1 <0>        -0.1175
     13 C13        -8.5065  -10.8307    0.0251 C.3       1 <0>        -0.1479
     14 C14        -8.4857  -12.3606    0.0167 C.3       1 <0>        -0.0146
     15 N1         -9.8639  -12.8690    0.0271 N.4       1 <0>        -0.4971
     16 C15        -9.8440  -14.3379    0.0191 C.3       1 <0>         0.0816
     17 C16        -9.2114  -14.8338    1.2863 C.2       1 <0>        -0.1889
     18 C17        -9.6628  -15.8281    1.9814 C.2       1 <0>        -0.0847
     19 C18       -10.8878  -16.6172    1.6228 C.3       1 <0>         0.1076
     20 C19       -11.2598  -16.3765    0.1581 C.3       1 <0>         0.0884
     21 C20       -11.2763  -14.8640   -0.0959 C.3       1 <0>         0.0949
     22 O1        -12.1031  -14.2228    0.8774 O.3       1 <0>        -0.5529
     23 O2        -12.5542  -16.9218   -0.1046 O.3       1 <0>        -0.5453
     24 O3        -11.9733  -16.2132    2.4598 O.3       1 <0>        -0.5289
     25 C21        -8.9116  -16.2171    3.2286 C.3       1 <0>         0.0967
     26 O4         -7.7858  -15.3530    3.3956 O.3       1 <0>        -0.5747
     27 H1          1.0039    1.9031    0.0027 H         1 <0>         0.0545
     28 H2         -0.5459    1.8868   -0.8726 H         1 <0>         0.0536
     29 H3         -0.5289    1.8773    0.9072 H         1 <0>         0.0536
     30 H4          0.5123   -0.3556   -0.8948 H         1 <0>         0.0604
     31 H5          0.5293   -0.3651    0.8851 H         1 <0>         0.0604
     32 H6         -1.9435   -0.1821    0.9097 H         1 <0>         0.0607
     33 H7         -1.9605   -0.1726   -0.8702 H         1 <0>         0.0607
     34 H8         -0.9024   -2.4150   -0.8923 H         1 <0>         0.0607
     35 H9         -0.8854   -2.4246    0.8875 H         1 <0>         0.0607
     36 H10        -3.3581   -2.2415    0.9121 H         1 <0>         0.0606
     37 H11        -3.3751   -2.2320   -0.8677 H         1 <0>         0.0607
     38 H12        -2.3170   -4.4744   -0.8899 H         1 <0>         0.0607
     39 H13        -2.3000   -4.4840    0.8900 H         1 <0>         0.0607
     40 H14        -4.7728   -4.3010    0.9146 H         1 <0>         0.0608
     41 H15        -4.7898   -4.2914   -0.8653 H         1 <0>         0.0608
     42 H16        -3.7316   -6.5338   -0.8874 H         1 <0>         0.0612
     43 H17        -3.7146   -6.5434    0.8924 H         1 <0>         0.0612
     44 H18        -6.1874   -6.3604    0.9170 H         1 <0>         0.0617
     45 H19        -6.2044   -6.3508   -0.8628 H         1 <0>         0.0617
     46 H20        -5.1463   -8.5933   -0.8850 H         1 <0>         0.0632
     47 H21        -5.1293   -8.6028    0.8949 H         1 <0>         0.0633
     48 H22        -7.6020   -8.4198    0.9195 H         1 <0>         0.0659
     49 H23        -7.6190   -8.4102   -0.8604 H         1 <0>         0.0658
     50 H24        -6.5609  -10.6527   -0.8825 H         1 <0>         0.0735
     51 H25        -6.5439  -10.6622    0.8973 H         1 <0>         0.0738
     52 H26        -9.0167  -10.4792    0.9219 H         1 <0>         0.0874
     53 H27        -9.0337  -10.4697   -0.8579 H         1 <0>         0.0871
     54 H28        -7.9755  -12.7121   -0.8801 H         1 <0>         0.1316
     55 H29        -7.9586  -12.7217    0.8998 H         1 <0>         0.1341
     56 H30       -10.3362  -12.5436    0.8573 H         1 <0>         0.4368
     57 H31        -9.2614  -14.6866   -0.8337 H         1 <0>         0.1556
     58 H32        -8.3241  -14.3299    1.6402 H         1 <0>         0.1512
     59 H33       -10.6916  -17.6784    1.7760 H         1 <0>         0.0785
     60 H34       -10.5214  -16.8489   -0.4898 H         1 <0>         0.0882
     61 H35       -11.6607  -14.6645   -1.0962 H         1 <0>         0.0940
     62 H36       -13.0262  -14.5103    0.8600 H         1 <0>         0.4145
     63 H37       -12.6191  -17.8739    0.0519 H         1 <0>         0.3981
     64 H38       -11.8128  -16.3469    3.4039 H         1 <0>         0.3839
     65 H39        -9.5702  -16.1269    4.0924 H         1 <0>         0.0725
     66 H40        -8.5684  -17.2478    3.1394 H         1 <0>         0.0735
     67 H41        -7.2550  -15.5459    4.1806 H         1 <0>         0.3984
     68 H42       -10.3519  -12.5348   -0.7903 H         1 <0>         0.4285
@<TRIPOS>BOND
     1    1    2 1
     2    1   27 1
     3    1   28 1
     4    1   29 1
     5    2    3 1
     6    2   30 1
     7    2   31 1
     8    3    4 1
     9    3   32 1
    10    3   33 1
    11    4    5 1
    12    4   34 1
    13    4   35 1
    14    5    6 1
    15    5   36 1
    16    5   37 1
    17    6    7 1
    18    6   38 1
    19    6   39 1
    20    7    8 1
    21    7   40 1
    22    7   41 1
    23    8    9 1
    24    8   42 1
    25    8   43 1
    26    9   10 1
    27    9   44 1
    28    9   45 1
    29   10   11 1
    30   10   46 1
    31   10   47 1
    32   11   12 1
    33   11   48 1
    34   11   49 1
    35   12   13 1
    36   12   50 1
    37   12   51 1
    38   13   14 1
    39   13   52 1
    40   13   53 1
    41   14   15 1
    42   14   54 1
    43   14   55 1
    44   15   16 1
    45   15   56 1
    46   15   68 1
    47   16   21 1
    48   16   17 1
    49   16   57 1
    50   17   18 2
    51   17   58 1
    52   18   19 1
    53   18   25 1
    54   19   20 1
    55   19   24 1
    56   19   59 1
    57   20   21 1
    58   20   23 1
    59   20   60 1
    60   21   22 1
    61   21   61 1
    62   22   62 1
    63   23   63 1
    64   24   64 1
    65   25   26 1
    66   25   65 1
    67   25   66 1
    68   26   67 1
@<TRIPOS>MOLECULE
CHEMBL170431__10
   68    68     0     0     0
SMALL
USER_CHARGES

@<TRIPOS>ATOM
      1 C1         -0.0187    1.5258    0.0104 C.3       1 <0>        -0.1549
      2 C2          0.0021   -0.0041    0.0020 C.3       1 <0>        -0.1261
      3 C3         -1.4333   -0.5336    0.0129 C.3       1 <0>        -0.1214
      4 C4         -1.4126   -2.0635    0.0045 C.3       1 <0>        -0.1213
      5 C5         -2.8479   -2.5931    0.0153 C.3       1 <0>        -0.1209
      6 C6         -2.8272   -4.1229    0.0069 C.3       1 <0>        -0.1209
      7 C7         -4.2626   -4.6525    0.0178 C.3       1 <0>        -0.1209
      8 C8         -4.2418   -6.1823    0.0094 C.3       1 <0>        -0.1211
      9 C9         -5.6772   -6.7119    0.0202 C.3       1 <0>        -0.1211
     10 C10        -5.6565   -8.2417    0.0118 C.3       1 <0>        -0.1217
     11 C11        -7.0918   -8.7713    0.0227 C.3       1 <0>        -0.1212
     12 C12        -7.0711  -10.3012    0.0143 C.3       1 <0>        -0.1177
     13 C13        -8.5065  -10.8307    0.0251 C.3       1 <0>        -0.1488
     14 C14        -8.4857  -12.3606    0.0167 C.3       1 <0>        -0.0101
     15 N1         -9.8639  -12.8690    0.0271 N.4       1 <0>        -0.5038
     16 C15        -9.8440  -14.3379    0.0191 C.3       1 <0>         0.0741
     17 C16        -9.2114  -14.8338    1.2863 C.2       1 <0>        -0.1941
     18 C17        -9.8748  -15.3176    2.2870 C.2       1 <0>        -0.0767
     19 C18       -11.3684  -15.4600    2.3155 C.3       1 <0>         0.1013
     20 C19       -12.0017  -14.5901    1.2275 C.3       1 <0>         0.0790
     21 C20       -11.2763  -14.8640   -0.0959 C.3       1 <0>         0.1015
     22 O1        -11.2527  -16.2703   -0.3483 O.3       1 <0>        -0.5378
     23 O2        -13.3857  -14.9199    1.0938 O.3       1 <0>        -0.5493
     24 O3        -11.8589  -15.0512    3.5940 O.3       1 <0>        -0.5560
     25 C21        -9.0989  -15.7662    3.4985 C.3       1 <0>         0.0926
     26 O4         -7.7037  -15.5507    3.2773 O.3       1 <0>        -0.5709
     27 H1          1.0039    1.9031    0.0027 H         1 <0>         0.0545
     28 H2         -0.5459    1.8868   -0.8726 H         1 <0>         0.0536
     29 H3         -0.5289    1.8773    0.9072 H         1 <0>         0.0535
     30 H4          0.5123   -0.3556   -0.8948 H         1 <0>         0.0604
     31 H5          0.5293   -0.3651    0.8851 H         1 <0>         0.0604
     32 H6         -1.9435   -0.1821    0.9097 H         1 <0>         0.0607
     33 H7         -1.9605   -0.1726   -0.8702 H         1 <0>         0.0607
     34 H8         -0.9024   -2.4150   -0.8923 H         1 <0>         0.0607
     35 H9         -0.8854   -2.4246    0.8875 H         1 <0>         0.0607
     36 H10        -3.3581   -2.2415    0.9121 H         1 <0>         0.0606
     37 H11        -3.3751   -2.2320   -0.8677 H         1 <0>         0.0607
     38 H12        -2.3170   -4.4744   -0.8899 H         1 <0>         0.0608
     39 H13        -2.3000   -4.4840    0.8900 H         1 <0>         0.0607
     40 H14        -4.7728   -4.3010    0.9146 H         1 <0>         0.0607
     41 H15        -4.7898   -4.2914   -0.8653 H         1 <0>         0.0608
     42 H16        -3.7316   -6.5338   -0.8874 H         1 <0>         0.0613
     43 H17        -3.7146   -6.5434    0.8924 H         1 <0>         0.0612
     44 H18        -6.1874   -6.3604    0.9170 H         1 <0>         0.0615
     45 H19        -6.2044   -6.3508   -0.8628 H         1 <0>         0.0617
     46 H20        -5.1463   -8.5933   -0.8850 H         1 <0>         0.0636
     47 H21        -5.1293   -8.6028    0.8949 H         1 <0>         0.0634
     48 H22        -7.6020   -8.4198    0.9195 H         1 <0>         0.0656
     49 H23        -7.6190   -8.4102   -0.8604 H         1 <0>         0.0659
     50 H24        -6.5609  -10.6527   -0.8825 H         1 <0>         0.0747
     51 H25        -6.5439  -10.6622    0.8973 H         1 <0>         0.0744
     52 H26        -9.0167  -10.4792    0.9219 H         1 <0>         0.0866
     53 H27        -9.0337  -10.4697   -0.8579 H         1 <0>         0.0879
     54 H28        -7.9755  -12.7121   -0.8801 H         1 <0>         0.1354
     55 H29        -7.9586  -12.7217    0.8998 H         1 <0>         0.1365
     56 H30       -10.3362  -12.5436    0.8573 H         1 <0>         0.4240
     57 H31        -9.2614  -14.6866   -0.8337 H         1 <0>         0.1630
     58 H32        -8.1356  -14.7842    1.3684 H         1 <0>         0.1557
     59 H33       -11.6352  -16.5030    2.1451 H         1 <0>         0.1011
     60 H34       -11.8965  -13.5380    1.4921 H         1 <0>         0.0679
     61 H35       -11.7908  -14.3513   -0.9087 H         1 <0>         0.0968
     62 H36       -12.1294  -16.6695   -0.4326 H         1 <0>         0.4102
     63 H37       -13.9017  -14.7858    1.9005 H         1 <0>         0.4054
     64 H38       -11.5079  -15.5666    4.3331 H         1 <0>         0.3942
     65 H39        -9.4213  -15.1944    4.3687 H         1 <0>         0.0767
     66 H40        -9.2795  -16.8268    3.6734 H         1 <0>         0.0757
     67 H41        -7.1422  -15.8174    4.0180 H         1 <0>         0.3992
     68 H42       -10.3519  -12.5348   -0.7903 H         1 <0>         0.4291
@<TRIPOS>BOND
     1    1    2 1
     2    1   27 1
     3    1   28 1
     4    1   29 1
     5    2    3 1
     6    2   30 1
     7    2   31 1
     8    3    4 1
     9    3   32 1
    10    3   33 1
    11    4    5 1
    12    4   34 1
    13    4   35 1
    14    5    6 1
    15    5   36 1
    16    5   37 1
    17    6    7 1
    18    6   38 1
    19    6   39 1
    20    7    8 1
    21    7   40 1
    22    7   41 1
    23    8    9 1
    24    8   42 1
    25    8   43 1
    26    9   10 1
    27    9   44 1
    28    9   45 1
    29   10   11 1
    30   10   46 1
    31   10   47 1
    32   11   12 1
    33   11   48 1
    34   11   49 1
    35   12   13 1
    36   12   50 1
    37   12   51 1
    38   13   14 1
    39   13   52 1
    40   13   53 1
    41   14   15 1
    42   14   54 1
    43   14   55 1
    44   15   16 1
    45   15   56 1
    46   15   68 1
    47   16   21 1
    48   16   17 1
    49   16   57 1
    50   17   18 2
    51   17   58 1
    52   18   19 1
    53   18   25 1
    54   19   20 1
    55   19   24 1
    56   19   59 1
    57   20   21 1
    58   20   23 1
    59   20   60 1
    60   21   22 1
    61   21   61 1
    62   22   62 1
    63   23   63 1
    64   24   64 1
    65   25   26 1
    66   25   65 1
    67   25   66 1
    68   26   67 1
@<TRIPOS>MOLECULE
CHEMBL170431__11
   68    68     0     0     0
SMALL
USER_CHARGES

@<TRIPOS>ATOM
      1 C1         -0.0187    1.5258    0.0104 C.3       1 <0>        -0.1549
      2 C2          0.0021   -0.0041    0.0020 C.3       1 <0>        -0.1261
      3 C3         -1.4333   -0.5336    0.0129 C.3       1 <0>        -0.1214
      4 C4         -1.4126   -2.0635    0.0045 C.3       1 <0>        -0.1213
      5 C5         -2.8479   -2.5931    0.0153 C.3       1 <0>        -0.1209
      6 C6         -2.8272   -4.1229    0.0069 C.3       1 <0>        -0.1208
      7 C7         -4.2626   -4.6525    0.0178 C.3       1 <0>        -0.1209
      8 C8         -4.2418   -6.1823    0.0094 C.3       1 <0>        -0.1211
      9 C9         -5.6772   -6.7119    0.0202 C.3       1 <0>        -0.1211
     10 C10        -5.6565   -8.2417    0.0118 C.3       1 <0>        -0.1216
     11 C11        -7.0918   -8.7713    0.0227 C.3       1 <0>        -0.1211
     12 C12        -7.0711  -10.3012    0.0143 C.3       1 <0>        -0.1177
     13 C13        -8.5065  -10.8307    0.0251 C.3       1 <0>        -0.1474
     14 C14        -8.4857  -12.3606    0.0167 C.3       1 <0>        -0.0145
     15 N1         -9.8639  -12.8690    0.0271 N.4       1 <0>        -0.5000
     16 C15        -9.8440  -14.3379    0.0191 C.3       1 <0>         0.0855
     17 C16        -9.2114  -14.8338    1.2863 C.2       1 <0>        -0.1756
     18 C17        -9.6628  -15.8281    1.9814 C.2       1 <0>        -0.0893
     19 C18       -10.8872  -16.6178    1.6223 C.3       1 <0>         0.1100
     20 C19       -11.2591  -16.3768    0.1576 C.3       1 <0>         0.0858
     21 C20       -11.2763  -14.8640   -0.0959 C.3       1 <0>         0.0971
     22 O1        -12.1031  -14.2228    0.8774 O.3       1 <0>        -0.5478
     23 O2        -10.2906  -16.9952   -0.6919 O.3       1 <0>        -0.5522
     24 O3        -11.9731  -16.2148    2.4592 O.3       1 <0>        -0.5396
     25 C21        -8.9116  -16.2171    3.2286 C.3       1 <0>         0.0976
     26 O4         -7.7858  -15.3530    3.3956 O.3       1 <0>        -0.5743
     27 H1          1.0039    1.9031    0.0027 H         1 <0>         0.0545
     28 H2         -0.5459    1.8868   -0.8726 H         1 <0>         0.0536
     29 H3         -0.5289    1.8773    0.9072 H         1 <0>         0.0535
     30 H4          0.5123   -0.3556   -0.8948 H         1 <0>         0.0604
     31 H5          0.5293   -0.3651    0.8851 H         1 <0>         0.0604
     32 H6         -1.9435   -0.1821    0.9097 H         1 <0>         0.0607
     33 H7         -1.9605   -0.1726   -0.8702 H         1 <0>         0.0607
     34 H8         -0.9024   -2.4150   -0.8923 H         1 <0>         0.0607
     35 H9         -0.8854   -2.4246    0.8875 H         1 <0>         0.0607
     36 H10        -3.3581   -2.2415    0.9121 H         1 <0>         0.0606
     37 H11        -3.3751   -2.2320   -0.8677 H         1 <0>         0.0606
     38 H12        -2.3170   -4.4744   -0.8899 H         1 <0>         0.0608
     39 H13        -2.3000   -4.4840    0.8900 H         1 <0>         0.0607
     40 H14        -4.7728   -4.3010    0.9146 H         1 <0>         0.0608
     41 H15        -4.7898   -4.2914   -0.8653 H         1 <0>         0.0608
     42 H16        -3.7316   -6.5338   -0.8874 H         1 <0>         0.0612
     43 H17        -3.7146   -6.5434    0.8924 H         1 <0>         0.0612
     44 H18        -6.1874   -6.3604    0.9170 H         1 <0>         0.0616
     45 H19        -6.2044   -6.3508   -0.8628 H         1 <0>         0.0616
     46 H20        -5.1463   -8.5933   -0.8850 H         1 <0>         0.0633
     47 H21        -5.1293   -8.6028    0.8949 H         1 <0>         0.0633
     48 H22        -7.6020   -8.4198    0.9195 H         1 <0>         0.0657
     49 H23        -7.6190   -8.4102   -0.8604 H         1 <0>         0.0656
     50 H24        -6.5609  -10.6527   -0.8825 H         1 <0>         0.0736
     51 H25        -6.5439  -10.6622    0.8973 H         1 <0>         0.0737
     52 H26        -9.0167  -10.4792    0.9219 H         1 <0>         0.0868
     53 H27        -9.0337  -10.4697   -0.8579 H         1 <0>         0.0867
     54 H28        -7.9755  -12.7121   -0.8801 H         1 <0>         0.1313
     55 H29        -7.9586  -12.7217    0.8998 H         1 <0>         0.1332
     56 H30       -10.3362  -12.5436    0.8573 H         1 <0>         0.4343
     57 H31        -9.2614  -14.6866   -0.8337 H         1 <0>         0.1601
     58 H32        -8.3241  -14.3299    1.6402 H         1 <0>         0.1479
     59 H33       -10.6905  -17.6790    1.7752 H         1 <0>         0.0787
     60 H34       -12.2462  -16.7933   -0.0431 H         1 <0>         0.0940
     61 H35       -11.6607  -14.6645   -1.0962 H         1 <0>         0.0947
     62 H36       -13.0262  -14.5103    0.8600 H         1 <0>         0.4100
     63 H37       -10.2157  -17.9518   -0.5718 H         1 <0>         0.3998
     64 H38       -11.8128  -16.3487    3.4033 H         1 <0>         0.3898
     65 H39        -9.5702  -16.1269    4.0924 H         1 <0>         0.0701
     66 H40        -8.5684  -17.2478    3.1394 H         1 <0>         0.0716
     67 H41        -7.2550  -15.5459    4.1806 H         1 <0>         0.3975
     68 H42       -10.3519  -12.5348   -0.7903 H         1 <0>         0.4271
@<TRIPOS>BOND
     1    1    2 1
     2    1   27 1
     3    1   28 1
     4    1   29 1
     5    2    3 1
     6    2   30 1
     7    2   31 1
     8    3    4 1
     9    3   32 1
    10    3   33 1
    11    4    5 1
    12    4   34 1
    13    4   35 1
    14    5    6 1
    15    5   36 1
    16    5   37 1
    17    6    7 1
    18    6   38 1
    19    6   39 1
    20    7    8 1
    21    7   40 1
    22    7   41 1
    23    8    9 1
    24    8   42 1
    25    8   43 1
    26    9   10 1
    27    9   44 1
    28    9   45 1
    29   10   11 1
    30   10   46 1
    31   10   47 1
    32   11   12 1
    33   11   48 1
    34   11   49 1
    35   12   13 1
    36   12   50 1
    37   12   51 1
    38   13   14 1
    39   13   52 1
    40   13   53 1
    41   14   15 1
    42   14   54 1
    43   14   55 1
    44   15   16 1
    45   15   56 1
    46   15   68 1
    47   16   21 1
    48   16   17 1
    49   16   57 1
    50   17   18 2
    51   17   58 1
    52   18   19 1
    53   18   25 1
    54   19   20 1
    55   19   24 1
    56   19   59 1
    57   20   21 1
    58   20   23 1
    59   20   60 1
    60   21   22 1
    61   21   61 1
    62   22   62 1
    63   23   63 1
    64   24   64 1
    65   25   26 1
    66   25   65 1
    67   25   66 1
    68   26   67 1
@<TRIPOS>MOLECULE
CHEMBL170431__12
   68    68     0     0     0
SMALL
USER_CHARGES

@<TRIPOS>ATOM
      1 C1         -0.0187    1.5258    0.0104 C.3       1 <0>        -0.1549
      2 C2          0.0021   -0.0041    0.0020 C.3       1 <0>        -0.1261
      3 C3         -1.4333   -0.5336    0.0129 C.3       1 <0>        -0.1214
      4 C4         -1.4126   -2.0635    0.0045 C.3       1 <0>        -0.1213
      5 C5         -2.8479   -2.5931    0.0153 C.3       1 <0>        -0.1208
      6 C6         -2.8272   -4.1229    0.0069 C.3       1 <0>        -0.1209
      7 C7         -4.2626   -4.6525    0.0178 C.3       1 <0>        -0.1209
      8 C8         -4.2418   -6.1823    0.0094 C.3       1 <0>        -0.1211
      9 C9         -5.6772   -6.7119    0.0202 C.3       1 <0>        -0.1212
     10 C10        -5.6565   -8.2417    0.0118 C.3       1 <0>        -0.1217
     11 C11        -7.0918   -8.7713    0.0227 C.3       1 <0>        -0.1212
     12 C12        -7.0711  -10.3012    0.0143 C.3       1 <0>        -0.1178
     13 C13        -8.5065  -10.8307    0.0251 C.3       1 <0>        -0.1480
     14 C14        -8.4857  -12.3606    0.0167 C.3       1 <0>        -0.0139
     15 N1         -9.8639  -12.8690    0.0271 N.4       1 <0>        -0.5009
     16 C15        -9.8440  -14.3379    0.0191 C.3       1 <0>         0.0808
     17 C16        -9.2114  -14.8338    1.2863 C.2       1 <0>        -0.2010
     18 C17        -9.6628  -15.8281    1.9814 C.2       1 <0>        -0.0848
     19 C18       -10.8872  -16.6178    1.6223 C.3       1 <0>         0.0990
     20 C19       -11.2591  -16.3768    0.1576 C.3       1 <0>         0.0943
     21 C20       -11.2763  -14.8640   -0.0959 C.3       1 <0>         0.0981
     22 O1        -11.7803  -14.6025   -1.4073 O.3       1 <0>        -0.5577
     23 O2        -12.5532  -16.9228   -0.1056 O.3       1 <0>        -0.5545
     24 O3        -10.6293  -18.0090    1.8227 O.3       1 <0>        -0.5493
     25 C21        -8.9116  -16.2171    3.2286 C.3       1 <0>         0.0933
     26 O4         -7.7858  -15.3530    3.3956 O.3       1 <0>        -0.5734
     27 H1          1.0039    1.9031    0.0027 H         1 <0>         0.0545
     28 H2         -0.5459    1.8868   -0.8726 H         1 <0>         0.0536
     29 H3         -0.5289    1.8773    0.9072 H         1 <0>         0.0535
     30 H4          0.5123   -0.3556   -0.8948 H         1 <0>         0.0604
     31 H5          0.5293   -0.3651    0.8851 H         1 <0>         0.0604
     32 H6         -1.9435   -0.1821    0.9097 H         1 <0>         0.0607
     33 H7         -1.9605   -0.1726   -0.8702 H         1 <0>         0.0607
     34 H8         -0.9024   -2.4150   -0.8923 H         1 <0>         0.0607
     35 H9         -0.8854   -2.4246    0.8875 H         1 <0>         0.0607
     36 H10        -3.3581   -2.2415    0.9121 H         1 <0>         0.0606
     37 H11        -3.3751   -2.2320   -0.8677 H         1 <0>         0.0607
     38 H12        -2.3170   -4.4744   -0.8899 H         1 <0>         0.0608
     39 H13        -2.3000   -4.4840    0.8900 H         1 <0>         0.0607
     40 H14        -4.7728   -4.3010    0.9146 H         1 <0>         0.0607
     41 H15        -4.7898   -4.2914   -0.8653 H         1 <0>         0.0609
     42 H16        -3.7316   -6.5338   -0.8874 H         1 <0>         0.0613
     43 H17        -3.7146   -6.5434    0.8924 H         1 <0>         0.0612
     44 H18        -6.1874   -6.3604    0.9170 H         1 <0>         0.0615
     45 H19        -6.2044   -6.3508   -0.8628 H         1 <0>         0.0617
     46 H20        -5.1463   -8.5933   -0.8850 H         1 <0>         0.0635
     47 H21        -5.1293   -8.6028    0.8949 H         1 <0>         0.0633
     48 H22        -7.6020   -8.4198    0.9195 H         1 <0>         0.0656
     49 H23        -7.6190   -8.4102   -0.8604 H         1 <0>         0.0660
     50 H24        -6.5609  -10.6527   -0.8825 H         1 <0>         0.0741
     51 H25        -6.5439  -10.6622    0.8973 H         1 <0>         0.0740
     52 H26        -9.0167  -10.4792    0.9219 H         1 <0>         0.0871
     53 H27        -9.0337  -10.4697   -0.8579 H         1 <0>         0.0879
     54 H28        -7.9755  -12.7121   -0.8801 H         1 <0>         0.1334
     55 H29        -7.9586  -12.7217    0.8998 H         1 <0>         0.1351
     56 H30       -10.3362  -12.5436    0.8573 H         1 <0>         0.4262
     57 H31        -9.2614  -14.6866   -0.8337 H         1 <0>         0.1571
     58 H32        -8.3241  -14.3299    1.6402 H         1 <0>         0.1594
     59 H33       -11.7155  -16.3104    2.2606 H         1 <0>         0.0937
     60 H34       -10.5203  -16.8485   -0.4904 H         1 <0>         0.0878
     61 H35       -11.9070  -14.3749    0.6465 H         1 <0>         0.0901
     62 H36       -12.6857  -14.9107   -1.5494 H         1 <0>         0.4161
     63 H37       -12.6175  -17.8750    0.0506 H         1 <0>         0.4071
     64 H38       -10.3970  -18.2388    2.7329 H         1 <0>         0.3928
     65 H39        -9.5702  -16.1269    4.0924 H         1 <0>         0.0762
     66 H40        -8.5684  -17.2478    3.1394 H         1 <0>         0.0789
     67 H41        -7.2550  -15.5459    4.1806 H         1 <0>         0.4002
     68 H42       -10.3519  -12.5348   -0.7903 H         1 <0>         0.4364
@<TRIPOS>BOND
     1    1    2 1
     2    1   27 1
     3    1   28 1
     4    1   29 1
     5    2    3 1
     6    2   30 1
     7    2   31 1
     8    3    4 1
     9    3   32 1
    10    3   33 1
    11    4    5 1
    12    4   34 1
    13    4   35 1
    14    5    6 1
    15    5   36 1
    16    5   37 1
    17    6    7 1
    18    6   38 1
    19    6   39 1
    20    7    8 1
    21    7   40 1
    22    7   41 1
    23    8    9 1
    24    8   42 1
    25    8   43 1
    26    9   10 1
    27    9   44 1
    28    9   45 1
    29   10   11 1
    30   10   46 1
    31   10   47 1
    32   11   12 1
    33   11   48 1
    34   11   49 1
    35   12   13 1
    36   12   50 1
    37   12   51 1
    38   13   14 1
    39   13   52 1
    40   13   53 1
    41   14   15 1
    42   14   54 1
    43   14   55 1
    44   15   16 1
    45   15   56 1
    46   15   68 1
    47   16   21 1
    48   16   17 1
    49   16   57 1
    50   17   18 2
    51   17   58 1
    52   18   19 1
    53   18   25 1
    54   19   20 1
    55   19   24 1
    56   19   59 1
    57   20   21 1
    58   20   23 1
    59   20   60 1
    60   21   22 1
    61   21   61 1
    62   22   62 1
    63   23   63 1
    64   24   64 1
    65   25   26 1
    66   25   65 1
    67   25   66 1
    68   26   67 1
@<TRIPOS>MOLECULE
CHEMBL170431__13
   68    68     0     0     0
SMALL
USER_CHARGES

@<TRIPOS>ATOM
      1 C1         -0.0187    1.5258    0.0104 C.3       1 <0>        -0.1549
      2 C2          0.0021   -0.0041    0.0020 C.3       1 <0>        -0.1261
      3 C3         -1.4333   -0.5336    0.0129 C.3       1 <0>        -0.1214
      4 C4         -1.4126   -2.0635    0.0045 C.3       1 <0>        -0.1213
      5 C5         -2.8479   -2.5931    0.0153 C.3       1 <0>        -0.1209
      6 C6         -2.8272   -4.1229    0.0069 C.3       1 <0>        -0.1209
      7 C7         -4.2626   -4.6525    0.0178 C.3       1 <0>        -0.1209
      8 C8         -4.2418   -6.1823    0.0094 C.3       1 <0>        -0.1211
      9 C9         -5.6772   -6.7119    0.0202 C.3       1 <0>        -0.1212
     10 C10        -5.6565   -8.2417    0.0118 C.3       1 <0>        -0.1216
     11 C11        -7.0918   -8.7713    0.0227 C.3       1 <0>        -0.1213
     12 C12        -7.0711  -10.3012    0.0143 C.3       1 <0>        -0.1177
     13 C13        -8.5065  -10.8307    0.0251 C.3       1 <0>        -0.1477
     14 C14        -8.4857  -12.3606    0.0167 C.3       1 <0>        -0.0149
     15 N1         -9.8639  -12.8690    0.0271 N.4       1 <0>        -0.4978
     16 C15        -9.8440  -14.3379    0.0191 C.3       1 <0>         0.0829
     17 C16        -9.2114  -14.8338    1.2863 C.2       1 <0>        -0.2013
     18 C17        -9.6628  -15.8281    1.9814 C.2       1 <0>        -0.0769
     19 C18       -10.8878  -16.6172    1.6228 C.3       1 <0>         0.1045
     20 C19       -11.2598  -16.3765    0.1581 C.3       1 <0>         0.0919
     21 C20       -11.2763  -14.8640   -0.0959 C.3       1 <0>         0.0955
     22 O1        -12.1031  -14.2228    0.8774 O.3       1 <0>        -0.5666
     23 O2        -12.5542  -16.9218   -0.1046 O.3       1 <0>        -0.5549
     24 O3        -10.6306  -18.0085    1.8237 O.3       1 <0>        -0.5541
     25 C21        -8.9116  -16.2171    3.2286 C.3       1 <0>         0.0935
     26 O4         -7.7858  -15.3530    3.3956 O.3       1 <0>        -0.5732
     27 H1          1.0039    1.9031    0.0027 H         1 <0>         0.0545
     28 H2         -0.5459    1.8868   -0.8726 H         1 <0>         0.0536
     29 H3         -0.5289    1.8773    0.9072 H         1 <0>         0.0535
     30 H4          0.5123   -0.3556   -0.8948 H         1 <0>         0.0604
     31 H5          0.5293   -0.3651    0.8851 H         1 <0>         0.0604
     32 H6         -1.9435   -0.1821    0.9097 H         1 <0>         0.0607
     33 H7         -1.9605   -0.1726   -0.8702 H         1 <0>         0.0607
     34 H8         -0.9024   -2.4150   -0.8923 H         1 <0>         0.0607
     35 H9         -0.8854   -2.4246    0.8875 H         1 <0>         0.0607
     36 H10        -3.3581   -2.2415    0.9121 H         1 <0>         0.0606
     37 H11        -3.3751   -2.2320   -0.8677 H         1 <0>         0.0607
     38 H12        -2.3170   -4.4744   -0.8899 H         1 <0>         0.0608
     39 H13        -2.3000   -4.4840    0.8900 H         1 <0>         0.0607
     40 H14        -4.7728   -4.3010    0.9146 H         1 <0>         0.0608
     41 H15        -4.7898   -4.2914   -0.8653 H         1 <0>         0.0608
     42 H16        -3.7316   -6.5338   -0.8874 H         1 <0>         0.0612
     43 H17        -3.7146   -6.5434    0.8924 H         1 <0>         0.0612
     44 H18        -6.1874   -6.3604    0.9170 H         1 <0>         0.0616
     45 H19        -6.2044   -6.3508   -0.8628 H         1 <0>         0.0617
     46 H20        -5.1463   -8.5933   -0.8850 H         1 <0>         0.0633
     47 H21        -5.1293   -8.6028    0.8949 H         1 <0>         0.0633
     48 H22        -7.6020   -8.4198    0.9195 H         1 <0>         0.0658
     49 H23        -7.6190   -8.4102   -0.8604 H         1 <0>         0.0658
     50 H24        -6.5609  -10.6527   -0.8825 H         1 <0>         0.0737
     51 H25        -6.5439  -10.6622    0.8973 H         1 <0>         0.0740
     52 H26        -9.0167  -10.4792    0.9219 H         1 <0>         0.0874
     53 H27        -9.0337  -10.4697   -0.8579 H         1 <0>         0.0872
     54 H28        -7.9755  -12.7121   -0.8801 H         1 <0>         0.1323
     55 H29        -7.9586  -12.7217    0.8998 H         1 <0>         0.1348
     56 H30       -10.3362  -12.5436    0.8573 H         1 <0>         0.4360
     57 H31        -9.2614  -14.6866   -0.8337 H         1 <0>         0.1584
     58 H32        -8.3241  -14.3299    1.6402 H         1 <0>         0.1531
     59 H33       -11.7158  -16.3091    2.2612 H         1 <0>         0.0954
     60 H34       -10.5214  -16.8489   -0.4898 H         1 <0>         0.0870
     61 H35       -11.6607  -14.6645   -1.0962 H         1 <0>         0.1034
     62 H36       -13.0262  -14.5103    0.8600 H         1 <0>         0.4155
     63 H37       -12.6191  -17.8739    0.0519 H         1 <0>         0.4060
     64 H38       -10.3983  -18.2381    2.7339 H         1 <0>         0.3918
     65 H39        -9.5702  -16.1269    4.0924 H         1 <0>         0.0746
     66 H40        -8.5684  -17.2478    3.1394 H         1 <0>         0.0767
     67 H41        -7.2550  -15.5459    4.1806 H         1 <0>         0.3989
     68 H42       -10.3519  -12.5348   -0.7903 H         1 <0>         0.4287
@<TRIPOS>BOND
     1    1    2 1
     2    1   27 1
     3    1   28 1
     4    1   29 1
     5    2    3 1
     6    2   30 1
     7    2   31 1
     8    3    4 1
     9    3   32 1
    10    3   33 1
    11    4    5 1
    12    4   34 1
    13    4   35 1
    14    5    6 1
    15    5   36 1
    16    5   37 1
    17    6    7 1
    18    6   38 1
    19    6   39 1
    20    7    8 1
    21    7   40 1
    22    7   41 1
    23    8    9 1
    24    8   42 1
    25    8   43 1
    26    9   10 1
    27    9   44 1
    28    9   45 1
    29   10   11 1
    30   10   46 1
    31   10   47 1
    32   11   12 1
    33   11   48 1
    34   11   49 1
    35   12   13 1
    36   12   50 1
    37   12   51 1
    38   13   14 1
    39   13   52 1
    40   13   53 1
    41   14   15 1
    42   14   54 1
    43   14   55 1
    44   15   16 1
    45   15   56 1
    46   15   68 1
    47   16   21 1
    48   16   17 1
    49   16   57 1
    50   17   18 2
    51   17   58 1
    52   18   19 1
    53   18   25 1
    54   19   20 1
    55   19   24 1
    56   19   59 1
    57   20   21 1
    58   20   23 1
    59   20   60 1
    60   21   22 1
    61   21   61 1
    62   22   62 1
    63   23   63 1
    64   24   64 1
    65   25   26 1
    66   25   65 1
    67   25   66 1
    68   26   67 1
@<TRIPOS>MOLECULE
CHEMBL170431__14
   68    68     0     0     0
SMALL
USER_CHARGES

@<TRIPOS>ATOM
      1 C1         -0.0187    1.5258    0.0104 C.3       1 <0>        -0.1549
      2 C2          0.0021   -0.0041    0.0020 C.3       1 <0>        -0.1262
      3 C3         -1.4333   -0.5336    0.0129 C.3       1 <0>        -0.1214
      4 C4         -1.4126   -2.0635    0.0045 C.3       1 <0>        -0.1213
      5 C5         -2.8479   -2.5931    0.0153 C.3       1 <0>        -0.1208
      6 C6         -2.8272   -4.1229    0.0069 C.3       1 <0>        -0.1209
      7 C7         -4.2626   -4.6525    0.0178 C.3       1 <0>        -0.1208
      8 C8         -4.2418   -6.1823    0.0094 C.3       1 <0>        -0.1212
      9 C9         -5.6772   -6.7119    0.0202 C.3       1 <0>        -0.1210
     10 C10        -5.6565   -8.2417    0.0118 C.3       1 <0>        -0.1218
     11 C11        -7.0918   -8.7713    0.0227 C.3       1 <0>        -0.1209
     12 C12        -7.0711  -10.3012    0.0143 C.3       1 <0>        -0.1181
     13 C13        -8.5065  -10.8307    0.0251 C.3       1 <0>        -0.1476
     14 C14        -8.4857  -12.3606    0.0167 C.3       1 <0>        -0.0135
     15 N1         -9.8639  -12.8690    0.0271 N.4       1 <0>        -0.5038
     16 C15        -9.8440  -14.3379    0.0191 C.3       1 <0>         0.0840
     17 C16        -9.2114  -14.8338    1.2863 C.2       1 <0>        -0.1881
     18 C17        -9.6628  -15.8281    1.9814 C.2       1 <0>        -0.0891
     19 C18       -10.8878  -16.6172    1.6228 C.3       1 <0>         0.1003
     20 C19       -11.2598  -16.3765    0.1581 C.3       1 <0>         0.0929
     21 C20       -11.2763  -14.8640   -0.0959 C.3       1 <0>         0.0968
     22 O1        -11.7803  -14.6025   -1.4073 O.3       1 <0>        -0.5541
     23 O2        -10.2918  -16.9958   -0.6913 O.3       1 <0>        -0.5478
     24 O3        -10.6306  -18.0085    1.8237 O.3       1 <0>        -0.5493
     25 C21        -8.9116  -16.2171    3.2286 C.3       1 <0>         0.0943
     26 O4         -7.7858  -15.3530    3.3956 O.3       1 <0>        -0.5733
     27 H1          1.0039    1.9031    0.0027 H         1 <0>         0.0545
     28 H2         -0.5459    1.8868   -0.8726 H         1 <0>         0.0536
     29 H3         -0.5289    1.8773    0.9072 H         1 <0>         0.0535
     30 H4          0.5123   -0.3556   -0.8948 H         1 <0>         0.0604
     31 H5          0.5293   -0.3651    0.8851 H         1 <0>         0.0604
     32 H6         -1.9435   -0.1821    0.9097 H         1 <0>         0.0606
     33 H7         -1.9605   -0.1726   -0.8702 H         1 <0>         0.0607
     34 H8         -0.9024   -2.4150   -0.8923 H         1 <0>         0.0607
     35 H9         -0.8854   -2.4246    0.8875 H         1 <0>         0.0607
     36 H10        -3.3581   -2.2415    0.9121 H         1 <0>         0.0606
     37 H11        -3.3751   -2.2320   -0.8677 H         1 <0>         0.0607
     38 H12        -2.3170   -4.4744   -0.8899 H         1 <0>         0.0608
     39 H13        -2.3000   -4.4840    0.8900 H         1 <0>         0.0607
     40 H14        -4.7728   -4.3010    0.9146 H         1 <0>         0.0607
     41 H15        -4.7898   -4.2914   -0.8653 H         1 <0>         0.0608
     42 H16        -3.7316   -6.5338   -0.8874 H         1 <0>         0.0613
     43 H17        -3.7146   -6.5434    0.8924 H         1 <0>         0.0612
     44 H18        -6.1874   -6.3604    0.9170 H         1 <0>         0.0614
     45 H19        -6.2044   -6.3508   -0.8628 H         1 <0>         0.0617
     46 H20        -5.1463   -8.5933   -0.8850 H         1 <0>         0.0636
     47 H21        -5.1293   -8.6028    0.8949 H         1 <0>         0.0633
     48 H22        -7.6020   -8.4198    0.9195 H         1 <0>         0.0654
     49 H23        -7.6190   -8.4102   -0.8604 H         1 <0>         0.0658
     50 H24        -6.5609  -10.6527   -0.8825 H         1 <0>         0.0741
     51 H25        -6.5439  -10.6622    0.8973 H         1 <0>         0.0739
     52 H26        -9.0167  -10.4792    0.9219 H         1 <0>         0.0864
     53 H27        -9.0337  -10.4697   -0.8579 H         1 <0>         0.0873
     54 H28        -7.9755  -12.7121   -0.8801 H         1 <0>         0.1328
     55 H29        -7.9586  -12.7217    0.8998 H         1 <0>         0.1341
     56 H30       -10.3362  -12.5436    0.8573 H         1 <0>         0.4235
     57 H31        -9.2614  -14.6866   -0.8337 H         1 <0>         0.1619
     58 H32        -8.3241  -14.3299    1.6402 H         1 <0>         0.1555
     59 H33       -11.7158  -16.3091    2.2612 H         1 <0>         0.0904
     60 H34       -12.2471  -16.7925   -0.0423 H         1 <0>         0.0917
     61 H35       -11.9070  -14.3749    0.6465 H         1 <0>         0.0959
     62 H36       -12.6857  -14.9107   -1.5494 H         1 <0>         0.4078
     63 H37       -10.2175  -17.9524   -0.5710 H         1 <0>         0.4014
     64 H38       -10.3983  -18.2381    2.7339 H         1 <0>         0.3938
     65 H39        -9.5702  -16.1269    4.0924 H         1 <0>         0.0735
     66 H40        -8.5684  -17.2478    3.1394 H         1 <0>         0.0767
     67 H41        -7.2550  -15.5459    4.1806 H         1 <0>         0.3990
     68 H42       -10.3519  -12.5348   -0.7903 H         1 <0>         0.4348
@<TRIPOS>BOND
     1    1    2 1
     2    1   27 1
     3    1   28 1
     4    1   29 1
     5    2    3 1
     6    2   30 1
     7    2   31 1
     8    3    4 1
     9    3   32 1
    10    3   33 1
    11    4    5 1
    12    4   34 1
    13    4   35 1
    14    5    6 1
    15    5   36 1
    16    5   37 1
    17    6    7 1
    18    6   38 1
    19    6   39 1
    20    7    8 1
    21    7   40 1
    22    7   41 1
    23    8    9 1
    24    8   42 1
    25    8   43 1
    26    9   10 1
    27    9   44 1
    28    9   45 1
    29   10   11 1
    30   10   46 1
    31   10   47 1
    32   11   12 1
    33   11   48 1
    34   11   49 1
    35   12   13 1
    36   12   50 1
    37   12   51 1
    38   13   14 1
    39   13   52 1
    40   13   53 1
    41   14   15 1
    42   14   54 1
    43   14   55 1
    44   15   16 1
    45   15   56 1
    46   15   68 1
    47   16   21 1
    48   16   17 1
    49   16   57 1
    50   17   18 2
    51   17   58 1
    52   18   19 1
    53   18   25 1
    54   19   20 1
    55   19   24 1
    56   19   59 1
    57   20   21 1
    58   20   23 1
    59   20   60 1
    60   21   22 1
    61   21   61 1
    62   22   62 1
    63   23   63 1
    64   24   64 1
    65   25   26 1
    66   25   65 1
    67   25   66 1
    68   26   67 1
@<TRIPOS>MOLECULE
CHEMBL170431__15
   68    68     0     0     0
SMALL
USER_CHARGES

@<TRIPOS>ATOM
      1 C1         -0.0187    1.5258    0.0104 C.3       1 <0>        -0.1549
      2 C2          0.0021   -0.0041    0.0020 C.3       1 <0>        -0.1261
      3 C3         -1.4333   -0.5336    0.0129 C.3       1 <0>        -0.1214
      4 C4         -1.4126   -2.0635    0.0045 C.3       1 <0>        -0.1213
      5 C5         -2.8479   -2.5931    0.0153 C.3       1 <0>        -0.1208
      6 C6         -2.8272   -4.1229    0.0069 C.3       1 <0>        -0.1209
      7 C7         -4.2626   -4.6525    0.0178 C.3       1 <0>        -0.1208
      8 C8         -4.2418   -6.1823    0.0094 C.3       1 <0>        -0.1211
      9 C9         -5.6772   -6.7119    0.0202 C.3       1 <0>        -0.1211
     10 C10        -5.6565   -8.2417    0.0118 C.3       1 <0>        -0.1217
     11 C11        -7.0918   -8.7713    0.0227 C.3       1 <0>        -0.1210
     12 C12        -7.0711  -10.3012    0.0143 C.3       1 <0>        -0.1180
     13 C13        -8.5065  -10.8307    0.0251 C.3       1 <0>        -0.1473
     14 C14        -8.4857  -12.3606    0.0167 C.3       1 <0>        -0.0146
     15 N1         -9.8639  -12.8690    0.0271 N.4       1 <0>        -0.5007
     16 C15        -9.8440  -14.3379    0.0191 C.3       1 <0>         0.0872
     17 C16        -9.2114  -14.8338    1.2863 C.2       1 <0>        -0.1882
     18 C17        -9.6628  -15.8281    1.9814 C.2       1 <0>        -0.0813
     19 C18       -10.8878  -16.6172    1.6228 C.3       1 <0>         0.1053
     20 C19       -11.2598  -16.3765    0.1581 C.3       1 <0>         0.0923
     21 C20       -11.2763  -14.8640   -0.0959 C.3       1 <0>         0.0940
     22 O1        -12.1031  -14.2228    0.8774 O.3       1 <0>        -0.5620
     23 O2        -10.2918  -16.9958   -0.6913 O.3       1 <0>        -0.5543
     24 O3        -10.6306  -18.0085    1.8237 O.3       1 <0>        -0.5540
     25 C21        -8.9116  -16.2171    3.2286 C.3       1 <0>         0.0945
     26 O4         -7.7858  -15.3530    3.3956 O.3       1 <0>        -0.5731
     27 H1          1.0039    1.9031    0.0027 H         1 <0>         0.0545
     28 H2         -0.5459    1.8868   -0.8726 H         1 <0>         0.0536
     29 H3         -0.5289    1.8773    0.9072 H         1 <0>         0.0535
     30 H4          0.5123   -0.3556   -0.8948 H         1 <0>         0.0604
     31 H5          0.5293   -0.3651    0.8851 H         1 <0>         0.0604
     32 H6         -1.9435   -0.1821    0.9097 H         1 <0>         0.0607
     33 H7         -1.9605   -0.1726   -0.8702 H         1 <0>         0.0607
     34 H8         -0.9024   -2.4150   -0.8923 H         1 <0>         0.0607
     35 H9         -0.8854   -2.4246    0.8875 H         1 <0>         0.0607
     36 H10        -3.3581   -2.2415    0.9121 H         1 <0>         0.0606
     37 H11        -3.3751   -2.2320   -0.8677 H         1 <0>         0.0606
     38 H12        -2.3170   -4.4744   -0.8899 H         1 <0>         0.0608
     39 H13        -2.3000   -4.4840    0.8900 H         1 <0>         0.0607
     40 H14        -4.7728   -4.3010    0.9146 H         1 <0>         0.0607
     41 H15        -4.7898   -4.2914   -0.8653 H         1 <0>         0.0608
     42 H16        -3.7316   -6.5338   -0.8874 H         1 <0>         0.0613
     43 H17        -3.7146   -6.5434    0.8924 H         1 <0>         0.0612
     44 H18        -6.1874   -6.3604    0.9170 H         1 <0>         0.0615
     45 H19        -6.2044   -6.3508   -0.8628 H         1 <0>         0.0616
     46 H20        -5.1463   -8.5933   -0.8850 H         1 <0>         0.0634
     47 H21        -5.1293   -8.6028    0.8949 H         1 <0>         0.0633
     48 H22        -7.6020   -8.4198    0.9195 H         1 <0>         0.0656
     49 H23        -7.6190   -8.4102   -0.8604 H         1 <0>         0.0656
     50 H24        -6.5609  -10.6527   -0.8825 H         1 <0>         0.0738
     51 H25        -6.5439  -10.6622    0.8973 H         1 <0>         0.0739
     52 H26        -9.0167  -10.4792    0.9219 H         1 <0>         0.0867
     53 H27        -9.0337  -10.4697   -0.8579 H         1 <0>         0.0866
     54 H28        -7.9755  -12.7121   -0.8801 H         1 <0>         0.1317
     55 H29        -7.9586  -12.7217    0.8998 H         1 <0>         0.1339
     56 H30       -10.3362  -12.5436    0.8573 H         1 <0>         0.4334
     57 H31        -9.2614  -14.6866   -0.8337 H         1 <0>         0.1625
     58 H32        -8.3241  -14.3299    1.6402 H         1 <0>         0.1491
     59 H33       -11.7158  -16.3091    2.2612 H         1 <0>         0.0918
     60 H34       -12.2471  -16.7925   -0.0423 H         1 <0>         0.0908
     61 H35       -11.6607  -14.6645   -1.0962 H         1 <0>         0.1031
     62 H36       -13.0262  -14.5103    0.8600 H         1 <0>         0.4108
     63 H37       -10.2175  -17.9524   -0.5710 H         1 <0>         0.4062
     64 H38       -10.3983  -18.2381    2.7339 H         1 <0>         0.3930
     65 H39        -9.5702  -16.1269    4.0924 H         1 <0>         0.0719
     66 H40        -8.5684  -17.2478    3.1394 H         1 <0>         0.0745
     67 H41        -7.2550  -15.5459    4.1806 H         1 <0>         0.3977
     68 H42       -10.3519  -12.5348   -0.7903 H         1 <0>         0.4271
@<TRIPOS>BOND
     1    1    2 1
     2    1   27 1
     3    1   28 1
     4    1   29 1
     5    2    3 1
     6    2   30 1
     7    2   31 1
     8    3    4 1
     9    3   32 1
    10    3   33 1
    11    4    5 1
    12    4   34 1
    13    4   35 1
    14    5    6 1
    15    5   36 1
    16    5   37 1
    17    6    7 1
    18    6   38 1
    19    6   39 1
    20    7    8 1
    21    7   40 1
    22    7   41 1
    23    8    9 1
    24    8   42 1
    25    8   43 1
    26    9   10 1
    27    9   44 1
    28    9   45 1
    29   10   11 1
    30   10   46 1
    31   10   47 1
    32   11   12 1
    33   11   48 1
    34   11   49 1
    35   12   13 1
    36   12   50 1
    37   12   51 1
    38   13   14 1
    39   13   52 1
    40   13   53 1
    41   14   15 1
    42   14   54 1
    43   14   55 1
    44   15   16 1
    45   15   56 1
    46   15   68 1
    47   16   21 1
    48   16   17 1
    49   16   57 1
    50   17   18 2
    51   17   58 1
    52   18   19 1
    53   18   25 1
    54   19   20 1
    55   19   24 1
    56   19   59 1
    57   20   21 1
    58   20   23 1
    59   20   60 1
    60   21   22 1
    61   21   61 1
    62   22   62 1
    63   23   63 1
    64   24   64 1
    65   25   26 1
    66   25   65 1
    67   25   66 1
    68   26   67 1
@<TRIPOS>MOLECULE
CHEMBL60801
   77    78     0     0     0
SMALL
USER_CHARGES

@<TRIPOS>ATOM
      1 C1         -0.0187    1.5258    0.0104 C.3       1 <0>        -0.1550
      2 C2          0.0021   -0.0041    0.0020 C.3       1 <0>        -0.1264
      3 C3         -1.4333   -0.5336    0.0129 C.3       1 <0>        -0.1210
      4 C4         -1.4126   -2.0635    0.0045 C.3       1 <0>        -0.1218
      5 C5         -2.8479   -2.5931    0.0153 C.3       1 <0>        -0.1200
      6 C6         -2.8272   -4.1229    0.0069 C.3       1 <0>        -0.1201
      7 C7         -4.2626   -4.6525    0.0178 C.3       1 <0>        -0.1197
      8 C8         -4.2418   -6.1823    0.0094 C.3       1 <0>        -0.1042
      9 C9         -5.6772   -6.7119    0.0202 C.3       1 <0>        -0.1395
     10 C10        -5.6568   -8.2187    0.0119 C.2       1 <0>         0.5159
     11 O1         -4.5984   -8.8108   -0.0014 O.2       1 <0>        -0.4896
     12 N1         -6.8147   -8.9084    0.0193 N.am      1 <0>        -0.7598
     13 C11        -6.7948  -10.3733    0.0112 C.3       1 <0>         0.0952
     14 H1         -5.9538  -10.7220   -0.5882 H         1 <0>         0.1232
     15 C12        -8.1009  -10.8977   -0.5888 C.3       1 <0>        -0.0186
     16 N2         -8.3005  -10.3073   -1.9190 N.4       1 <0>        -0.4993
     17 C13        -9.5545  -10.8109   -2.4951 C.3       1 <0>         0.0876
     18 C14        -9.4425  -12.2914   -2.7131 C.2       1 <0>        -0.1901
     19 C15        -9.8628  -12.9021   -3.7742 C.2       1 <0>        -0.0780
     20 C16       -10.5113  -12.2135   -4.9393 C.3       1 <0>         0.1048
     21 C17       -10.9819  -10.8160   -4.5303 C.3       1 <0>         0.0928
     22 C18        -9.8231  -10.1013   -3.8240 C.3       1 <0>         0.0942
     23 O2         -8.6538  -10.1573   -4.6434 O.3       1 <0>        -0.5615
     24 O3        -12.0937  -10.9252   -3.6392 O.3       1 <0>        -0.5541
     25 O4        -11.6335  -12.9815   -5.3787 O.3       1 <0>        -0.5537
     26 C19        -9.6898  -14.3975   -3.8442 C.3       1 <0>         0.0941
     27 O5         -9.0576  -14.8603   -2.6491 O.3       1 <0>        -0.5728
     28 C20        -6.6485  -10.8892    1.4442 C.3       1 <0>         0.1459
     29 H2         -6.5445  -11.9742    1.4308 H         1 <0>         0.1250
     30 C21        -5.4263  -10.2752    2.0768 C.ar      1 <0>        -0.1136
     31 C22        -5.5095   -9.0337    2.6790 C.ar      1 <0>        -0.1117
     32 C23        -4.3884   -8.4704    3.2593 C.ar      1 <0>        -0.1111
     33 C24        -3.1842   -9.1488    3.2378 C.ar      1 <0>        -0.1044
     34 C25        -3.1012  -10.3907    2.6364 C.ar      1 <0>        -0.1058
     35 C26        -4.2233  -10.9559    2.0599 C.ar      1 <0>        -0.0923
     36 O6         -7.8071  -10.5310    2.2001 O.3       1 <0>        -0.5449
     37 H3          1.0039    1.9031    0.0027 H         1 <0>         0.0549
     38 H4         -0.5459    1.8868   -0.8726 H         1 <0>         0.0534
     39 H5         -0.5289    1.8773    0.9072 H         1 <0>         0.0537
     40 H6          0.5123   -0.3556   -0.8948 H         1 <0>         0.0604
     41 H7          0.5293   -0.3651    0.8851 H         1 <0>         0.0607
     42 H8         -1.9435   -0.1821    0.9097 H         1 <0>         0.0608
     43 H9         -1.9605   -0.1726   -0.8702 H         1 <0>         0.0604
     44 H10        -0.9024   -2.4150   -0.8923 H         1 <0>         0.0608
     45 H11        -0.8854   -2.4246    0.8875 H         1 <0>         0.0613
     46 H12        -3.3581   -2.2415    0.9121 H         1 <0>         0.0610
     47 H13        -3.3751   -2.2320   -0.8677 H         1 <0>         0.0604
     48 H14        -2.3170   -4.4744   -0.8899 H         1 <0>         0.0617
     49 H15        -2.3000   -4.4840    0.8900 H         1 <0>         0.0626
     50 H16        -4.7728   -4.3010    0.9146 H         1 <0>         0.0627
     51 H17        -4.7898   -4.2914   -0.8653 H         1 <0>         0.0612
     52 H18        -3.7316   -6.5338   -0.8874 H         1 <0>         0.0690
     53 H19        -3.7146   -6.5434    0.8924 H         1 <0>         0.0729
     54 H20        -6.1874   -6.3604    0.9170 H         1 <0>         0.0964
     55 H21        -6.2044   -6.3508   -0.8628 H         1 <0>         0.0928
     56 H22        -7.6612   -8.4349    0.0299 H         1 <0>         0.3989
     57 H23        -8.0503  -11.9830   -0.6768 H         1 <0>         0.1522
     58 H24        -8.9339  -10.6242    0.0588 H         1 <0>         0.1471
     59 H25        -8.3473   -9.3027   -1.8375 H         1 <0>         0.4228
     60 H26       -10.3749  -10.6102   -1.8060 H         1 <0>         0.1646
     61 H27        -8.9823  -12.8843   -1.9365 H         1 <0>         0.1498
     62 H28        -9.7927  -12.1286   -5.7545 H         1 <0>         0.0921
     63 H29       -11.2733  -10.2534   -5.4173 H         1 <0>         0.0911
     64 H30       -10.0934   -9.0621   -3.6364 H         1 <0>         0.1027
     65 H31        -8.7546   -9.7254   -5.5027 H         1 <0>         0.4112
     66 H32       -12.8573  -11.3825   -4.0172 H         1 <0>         0.4066
     67 H33       -11.4091  -13.8777   -5.6644 H         1 <0>         0.3933
     68 H34       -10.6659  -14.8718   -3.9460 H         1 <0>         0.0750
     69 H35        -9.0707  -14.6517   -4.7045 H         1 <0>         0.0722
     70 H36        -8.9142  -15.8163   -2.6249 H         1 <0>         0.3982
     71 H37        -6.4504   -8.5036    2.6958 H         1 <0>         0.1094
     72 H38        -4.4533   -7.5002    3.7292 H         1 <0>         0.1208
     73 H39        -2.3082   -8.7085    3.6906 H         1 <0>         0.1229
     74 H40        -2.1603  -10.9206    2.6193 H         1 <0>         0.1233
     75 H41        -4.1593  -11.9278    1.5933 H         1 <0>         0.1183
     76 H42        -7.9621   -9.5781    2.2544 H         1 <0>         0.3751
     77 H43        -7.5294  -10.5605   -2.5185 H         1 <0>         0.4351
@<TRIPOS>BOND
     1    1    2 1
     2    1   37 1
     3    1   38 1
     4    1   39 1
     5    2    3 1
     6    2   40 1
     7    2   41 1
     8    3    4 1
     9    3   42 1
    10    3   43 1
    11    4    5 1
    12    4   44 1
    13    4   45 1
    14    5    6 1
    15    5   46 1
    16    5   47 1
    17    6    7 1
    18    6   48 1
    19    6   49 1
    20    7    8 1
    21    7   50 1
    22    7   51 1
    23    8    9 1
    24    8   52 1
    25    8   53 1
    26    9   10 1
    27    9   54 1
    28    9   55 1
    29   10   11 2
    30   10   12 am
    31   12   13 1
    32   12   56 1
    33   13   14 1
    34   13   15 1
    35   13   28 1
    36   15   16 1
    37   15   57 1
    38   15   58 1
    39   16   17 1
    40   16   59 1
    41   16   77 1
    42   17   22 1
    43   17   18 1
    44   17   60 1
    45   18   19 2
    46   18   61 1
    47   19   20 1
    48   19   26 1
    49   20   21 1
    50   20   25 1
    51   20   62 1
    52   21   22 1
    53   21   24 1
    54   21   63 1
    55   22   23 1
    56   22   64 1
    57   23   65 1
    58   24   66 1
    59   25   67 1
    60   26   27 1
    61   26   68 1
    62   26   69 1
    63   27   70 1
    64   28   29 1
    65   28   30 1
    66   28   36 1
    67   30   35 ar
    68   30   31 ar
    69   31   32 ar
    70   31   71 1
    71   32   33 ar
    72   32   72 1
    73   33   34 ar
    74   33   73 1
    75   34   35 ar
    76   34   74 1
    77   35   75 1
    78   36   76 1
@<TRIPOS>MOLECULE
CHEMBL60801__1
   76    77     0     0     0
SMALL
USER_CHARGES

@<TRIPOS>ATOM
      1 C1         -0.0187    1.5258    0.0104 C.3       1 <0>        -0.1542
      2 C2          0.0021   -0.0041    0.0020 C.3       1 <0>        -0.1264
      3 C3          0.7182   -0.4975   -1.2568 C.3       1 <0>        -0.1209
      4 C4          0.7390   -2.0273   -1.2652 C.3       1 <0>        -0.1218
      5 C5          1.4551   -2.5207   -2.5240 C.3       1 <0>        -0.1198
      6 C6          1.4758   -4.0506   -2.5324 C.3       1 <0>        -0.1207
      7 C7          2.1920   -4.5440   -3.7912 C.3       1 <0>        -0.1196
      8 C8          2.2127   -6.0738   -3.7996 C.3       1 <0>        -0.1049
      9 C9          2.9289   -6.5673   -5.0584 C.3       1 <0>        -0.1414
     10 C10         2.9493   -8.0741   -5.0667 C.2       1 <0>         0.5067
     11 O1          2.4411   -8.6925   -4.1555 O.2       1 <0>        -0.5166
     12 N1          3.5323   -8.7345   -6.0867 N.am      1 <0>        -0.7333
     13 C11         3.5522  -10.1994   -6.0948 C.3       1 <0>         0.1224
     14 H1          3.6564  -10.5669   -5.0739 H         1 <0>         0.1081
     15 C12         4.7327  -10.6888   -6.9361 C.3       1 <0>         0.0506
     16 N2          5.9753  -10.0889   -6.4321 N.3       1 <0>        -0.6654
     17 C13         7.1327  -10.5372   -7.2177 C.3       1 <0>         0.1311
     18 C14         7.6115  -11.8576   -6.6889 C.2       1 <0>        -0.0763
     19 C15         8.8581  -12.1618   -6.5191 C.2       1 <0>        -0.1751
     20 C16         9.9985  -11.2329   -6.8171 C.3       1 <0>         0.1244
     21 C17         9.5262  -10.0913   -7.7200 C.3       1 <0>         0.0895
     22 C18         8.2479   -9.4941   -7.1184 C.3       1 <0>         0.1113
     23 O2          8.4731   -9.1606   -5.7473 O.3       1 <0>        -0.5339
     24 O3          9.2511  -10.5960   -9.0283 O.3       1 <0>        -0.5514
     25 O4         11.0399  -11.9573   -7.4750 O.3       1 <0>        -0.5652
     26 C19         9.1847  -13.5340   -5.9885 C.3       1 <0>         0.1118
     27 O5          7.9738  -14.2604   -5.7692 O.3       1 <0>        -0.5650
     28 C20         2.2461  -10.7238   -6.6948 C.3       1 <0>         0.1402
     29 H2          2.1419  -10.3563   -7.7156 H         1 <0>         0.0615
     30 C21         2.2665  -12.2307   -6.7031 C.ar      1 <0>        -0.0847
     31 C22         1.8719  -12.9334   -5.5800 C.ar      1 <0>        -0.0857
     32 C23         1.8906  -14.3156   -5.5876 C.ar      1 <0>        -0.1218
     33 C24         2.3036  -14.9951   -6.7184 C.ar      1 <0>        -0.1144
     34 C25         2.6974  -14.2923   -7.8418 C.ar      1 <0>        -0.1207
     35 C26         2.6746  -12.9102   -7.8356 C.ar      1 <0>        -0.1109
     36 O6          1.1436  -10.2667   -5.9090 O.3       1 <0>        -0.5429
     37 H3          1.0039    1.9031    0.0027 H         1 <0>         0.0531
     38 H4         -0.5459    1.8868   -0.8726 H         1 <0>         0.0532
     39 H5         -0.5289    1.8773    0.9072 H         1 <0>         0.0534
     40 H6          0.5293   -0.3651    0.8851 H         1 <0>         0.0604
     41 H7         -1.0205   -0.3814    0.0098 H         1 <0>         0.0604
     42 H8          0.1910   -0.1364   -2.1398 H         1 <0>         0.0603
     43 H9          1.7408   -0.1202   -1.2645 H         1 <0>         0.0603
     44 H10         1.2661   -2.3884   -0.3821 H         1 <0>         0.0610
     45 H11        -0.2836   -2.4046   -1.2575 H         1 <0>         0.0610
     46 H12         0.9279   -2.1597   -3.4071 H         1 <0>         0.0602
     47 H13         2.4777   -2.1435   -2.5317 H         1 <0>         0.0602
     48 H14         2.0030   -4.4117   -1.6494 H         1 <0>         0.0622
     49 H15         0.4533   -4.4279   -2.5247 H         1 <0>         0.0623
     50 H16         1.6648   -4.1829   -4.6743 H         1 <0>         0.0613
     51 H17         3.2146   -4.1667   -3.7990 H         1 <0>         0.0613
     52 H18         2.7399   -6.4349   -2.9166 H         1 <0>         0.0704
     53 H19         1.1901   -6.4511   -3.7919 H         1 <0>         0.0704
     54 H20         2.4017   -6.2062   -5.9415 H         1 <0>         0.0922
     55 H21         3.9515   -6.1900   -5.0662 H         1 <0>         0.0935
     56 H22         3.9388   -8.2400   -6.8155 H         1 <0>         0.3969
     57 H23         4.8005  -11.7747   -6.8700 H         1 <0>         0.0956
     58 H24         4.5838  -10.3967   -7.9756 H         1 <0>         0.0354
     59 H25         5.9128   -9.0819   -6.4227 H         1 <0>         0.3433
     60 H26         6.8383  -10.6533   -8.2607 H         1 <0>         0.0773
     61 H27         6.8698  -12.6000   -6.4340 H         1 <0>         0.1252
     62 H28        10.3819  -10.8205   -5.8839 H         1 <0>         0.0745
     63 H29        10.2984   -9.3240   -7.7748 H         1 <0>         0.0686
     64 H30         7.9641   -8.6004   -7.6742 H         1 <0>         0.0702
     65 H31         9.1689   -8.5030   -5.6116 H         1 <0>         0.3768
     66 H32        10.0140  -11.0031   -9.4612 H         1 <0>         0.3910
     67 H33        11.3966  -12.6914   -6.9563 H         1 <0>         0.3833
     68 H34         9.8016  -14.0662   -6.7125 H         1 <0>         0.0547
     69 H35         9.7275  -13.4402   -5.0479 H         1 <0>         0.0526
     70 H36         8.1082  -15.1548   -5.4268 H         1 <0>         0.3826
     71 H37         1.5492  -12.4026   -4.6965 H         1 <0>         0.1290
     72 H38         1.5830  -14.8647   -4.7100 H         1 <0>         0.1228
     73 H39         2.3189  -16.0750   -6.7241 H         1 <0>         0.1217
     74 H40         3.0204  -14.8231   -8.7251 H         1 <0>         0.1229
     75 H41         2.9787  -12.3611   -8.7146 H         1 <0>         0.1195
     76 H42         1.0684   -9.3039   -5.8593 H         1 <0>         0.3743
@<TRIPOS>BOND
     1    1    2 1
     2    1   37 1
     3    1   38 1
     4    1   39 1
     5    2    3 1
     6    2   40 1
     7    2   41 1
     8    3    4 1
     9    3   42 1
    10    3   43 1
    11    4    5 1
    12    4   44 1
    13    4   45 1
    14    5    6 1
    15    5   46 1
    16    5   47 1
    17    6    7 1
    18    6   48 1
    19    6   49 1
    20    7    8 1
    21    7   50 1
    22    7   51 1
    23    8    9 1
    24    8   52 1
    25    8   53 1
    26    9   10 1
    27    9   54 1
    28    9   55 1
    29   10   11 2
    30   10   12 am
    31   12   13 1
    32   12   56 1
    33   13   14 1
    34   13   15 1
    35   13   28 1
    36   15   16 1
    37   15   57 1
    38   15   58 1
    39   16   17 1
    40   16   59 1
    41   17   22 1
    42   17   18 1
    43   17   60 1
    44   18   19 2
    45   18   61 1
    46   19   20 1
    47   19   26 1
    48   20   21 1
    49   20   25 1
    50   20   62 1
    51   21   22 1
    52   21   24 1
    53   21   63 1
    54   22   23 1
    55   22   64 1
    56   23   65 1
    57   24   66 1
    58   25   67 1
    59   26   27 1
    60   26   68 1
    61   26   69 1
    62   27   70 1
    63   28   29 1
    64   28   30 1
    65   28   36 1
    66   30   35 ar
    67   30   31 ar
    68   31   32 ar
    69   31   71 1
    70   32   33 ar
    71   32   72 1
    72   33   34 ar
    73   33   73 1
    74   34   35 ar
    75   34   74 1
    76   35   75 1
    77   36   76 1
@<TRIPOS>MOLECULE
CHEMBL60801__2
   77    78     0     0     0
SMALL
USER_CHARGES

@<TRIPOS>ATOM
      1 C1         -0.0187    1.5258    0.0104 C.3       1 <0>        -0.1550
      2 C2          0.0021   -0.0041    0.0020 C.3       1 <0>        -0.1263
      3 C3         -1.4333   -0.5336    0.0129 C.3       1 <0>        -0.1211
      4 C4         -1.4126   -2.0635    0.0045 C.3       1 <0>        -0.1217
      5 C5         -2.8479   -2.5931    0.0153 C.3       1 <0>        -0.1201
      6 C6         -2.8272   -4.1229    0.0069 C.3       1 <0>        -0.1199
      7 C7         -4.2626   -4.6525    0.0178 C.3       1 <0>        -0.1199
      8 C8         -4.2418   -6.1823    0.0094 C.3       1 <0>        -0.1038
      9 C9         -5.6772   -6.7119    0.0202 C.3       1 <0>        -0.1400
     10 C10        -5.6568   -8.2187    0.0119 C.2       1 <0>         0.5162
     11 O1         -4.5984   -8.8108   -0.0014 O.2       1 <0>        -0.4909
     12 N1         -6.8147   -8.9084    0.0193 N.am      1 <0>        -0.7600
     13 C11        -6.7948  -10.3733    0.0112 C.3       1 <0>         0.0946
     14 H1         -5.9538  -10.7220   -0.5882 H         1 <0>         0.1230
     15 C12        -8.1009  -10.8977   -0.5888 C.3       1 <0>        -0.0177
     16 N2         -8.3005  -10.3073   -1.9190 N.4       1 <0>        -0.5028
     17 C13        -9.5545  -10.8109   -2.4951 C.3       1 <0>         0.0846
     18 C14        -9.4425  -12.2914   -2.7131 C.2       1 <0>        -0.1903
     19 C15        -9.8628  -12.9021   -3.7742 C.2       1 <0>        -0.0858
     20 C16       -10.5113  -12.2135   -4.9393 C.3       1 <0>         0.0997
     21 C17       -10.9819  -10.8160   -4.5303 C.3       1 <0>         0.0937
     22 C18        -9.8231  -10.1013   -3.8240 C.3       1 <0>         0.0969
     23 O2        -10.1774   -8.7389   -3.5780 O.3       1 <0>        -0.5544
     24 O3        -12.0937  -10.9252   -3.6392 O.3       1 <0>        -0.5475
     25 O4        -11.6335  -12.9815   -5.3787 O.3       1 <0>        -0.5490
     26 C19        -9.6898  -14.3975   -3.8442 C.3       1 <0>         0.0939
     27 O5         -9.0576  -14.8603   -2.6491 O.3       1 <0>        -0.5730
     28 C20        -6.6485  -10.8892    1.4442 C.3       1 <0>         0.1460
     29 H2         -6.5445  -11.9742    1.4308 H         1 <0>         0.1249
     30 C21        -5.4263  -10.2752    2.0768 C.ar      1 <0>        -0.1137
     31 C22        -5.5095   -9.0337    2.6790 C.ar      1 <0>        -0.1115
     32 C23        -4.3884   -8.4704    3.2593 C.ar      1 <0>        -0.1109
     33 C24        -3.1842   -9.1488    3.2378 C.ar      1 <0>        -0.1044
     34 C25        -3.1012  -10.3907    2.6364 C.ar      1 <0>        -0.1060
     35 C26        -4.2233  -10.9559    2.0599 C.ar      1 <0>        -0.0924
     36 O6         -7.8071  -10.5310    2.2001 O.3       1 <0>        -0.5449
     37 H3          1.0039    1.9031    0.0027 H         1 <0>         0.0548
     38 H4         -0.5459    1.8868   -0.8726 H         1 <0>         0.0535
     39 H5         -0.5289    1.8773    0.9072 H         1 <0>         0.0537
     40 H6          0.5123   -0.3556   -0.8948 H         1 <0>         0.0604
     41 H7          0.5293   -0.3651    0.8851 H         1 <0>         0.0607
     42 H8         -1.9435   -0.1821    0.9097 H         1 <0>         0.0609
     43 H9         -1.9605   -0.1726   -0.8702 H         1 <0>         0.0605
     44 H10        -0.9024   -2.4150   -0.8923 H         1 <0>         0.0607
     45 H11        -0.8854   -2.4246    0.8875 H         1 <0>         0.0612
     46 H12        -3.3581   -2.2415    0.9121 H         1 <0>         0.0611
     47 H13        -3.3751   -2.2320   -0.8677 H         1 <0>         0.0604
     48 H14        -2.3170   -4.4744   -0.8899 H         1 <0>         0.0616
     49 H15        -2.3000   -4.4840    0.8900 H         1 <0>         0.0625
     50 H16        -4.7728   -4.3010    0.9146 H         1 <0>         0.0629
     51 H17        -4.7898   -4.2914   -0.8653 H         1 <0>         0.0614
     52 H18        -3.7316   -6.5338   -0.8874 H         1 <0>         0.0686
     53 H19        -3.7146   -6.5434    0.8924 H         1 <0>         0.0727
     54 H20        -6.1874   -6.3604    0.9170 H         1 <0>         0.0967
     55 H21        -6.2044   -6.3508   -0.8628 H         1 <0>         0.0934
     56 H22        -7.6612   -8.4349    0.0299 H         1 <0>         0.4005
     57 H23        -8.0503  -11.9830   -0.6768 H         1 <0>         0.1525
     58 H24        -8.9339  -10.6242    0.0588 H         1 <0>         0.1482
     59 H25        -8.3473   -9.3027   -1.8375 H         1 <0>         0.4309
     60 H26       -10.3749  -10.6102   -1.8060 H         1 <0>         0.1643
     61 H27        -8.9823  -12.8843   -1.9365 H         1 <0>         0.1562
     62 H28        -9.7927  -12.1286   -5.7545 H         1 <0>         0.0907
     63 H29       -11.2733  -10.2534   -5.4173 H         1 <0>         0.0921
     64 H30        -8.9312  -10.1440   -4.4490 H         1 <0>         0.0958
     65 H31       -10.3614   -8.2296   -4.3791 H         1 <0>         0.4083
     66 H32       -12.8573  -11.3825   -4.0172 H         1 <0>         0.4019
     67 H33       -11.4091  -13.8777   -5.6644 H         1 <0>         0.3942
     68 H34       -10.6659  -14.8718   -3.9460 H         1 <0>         0.0772
     69 H35        -9.0707  -14.6517   -4.7045 H         1 <0>         0.0738
     70 H36        -8.9142  -15.8163   -2.6249 H         1 <0>         0.3995
     71 H37        -6.4504   -8.5036    2.6958 H         1 <0>         0.1096
     72 H38        -4.4533   -7.5002    3.7292 H         1 <0>         0.1209
     73 H39        -2.3082   -8.7085    3.6906 H         1 <0>         0.1229
     74 H40        -2.1603  -10.9206    2.6193 H         1 <0>         0.1232
     75 H41        -4.1593  -11.9278    1.5933 H         1 <0>         0.1181
     76 H42        -7.9621   -9.5781    2.2544 H         1 <0>         0.3758
     77 H43        -7.5294  -10.5605   -2.5185 H         1 <0>         0.4249
@<TRIPOS>BOND
     1    1    2 1
     2    1   37 1
     3    1   38 1
     4    1   39 1
     5    2    3 1
     6    2   40 1
     7    2   41 1
     8    3    4 1
     9    3   42 1
    10    3   43 1
    11    4    5 1
    12    4   44 1
    13    4   45 1
    14    5    6 1
    15    5   46 1
    16    5   47 1
    17    6    7 1
    18    6   48 1
    19    6   49 1
    20    7    8 1
    21    7   50 1
    22    7   51 1
    23    8    9 1
    24    8   52 1
    25    8   53 1
    26    9   10 1
    27    9   54 1
    28    9   55 1
    29   10   11 2
    30   10   12 am
    31   12   13 1
    32   12   56 1
    33   13   14 1
    34   13   15 1
    35   13   28 1
    36   15   16 1
    37   15   57 1
    38   15   58 1
    39   16   17 1
    40   16   59 1
    41   16   77 1
    42   17   22 1
    43   17   18 1
    44   17   60 1
    45   18   19 2
    46   18   61 1
    47   19   20 1
    48   19   26 1
    49   20   21 1
    50   20   25 1
    51   20   62 1
    52   21   22 1
    53   21   24 1
    54   21   63 1
    55   22   23 1
    56   22   64 1
    57   23   65 1
    58   24   66 1
    59   25   67 1
    60   26   27 1
    61   26   68 1
    62   26   69 1
    63   27   70 1
    64   28   29 1
    65   28   30 1
    66   28   36 1
    67   30   35 ar
    68   30   31 ar
    69   31   32 ar
    70   31   71 1
    71   32   33 ar
    72   32   72 1
    73   33   34 ar
    74   33   73 1
    75   34   35 ar
    76   34   74 1
    77   35   75 1
    78   36   76 1
@<TRIPOS>MOLECULE
CHEMBL60801__3
   76    77     0     0     0
SMALL
USER_CHARGES

@<TRIPOS>ATOM
      1 C1         -0.0187    1.5258    0.0104 C.3       1 <0>        -0.1542
      2 C2          0.0021   -0.0041    0.0020 C.3       1 <0>        -0.1264
      3 C3          0.7182   -0.4975   -1.2568 C.3       1 <0>        -0.1209
      4 C4          0.7390   -2.0273   -1.2652 C.3       1 <0>        -0.1218
      5 C5          1.4551   -2.5207   -2.5240 C.3       1 <0>        -0.1199
      6 C6          1.4758   -4.0506   -2.5324 C.3       1 <0>        -0.1205
      7 C7          2.1920   -4.5440   -3.7912 C.3       1 <0>        -0.1198
      8 C8          2.2127   -6.0738   -3.7996 C.3       1 <0>        -0.1046
      9 C9          2.9289   -6.5673   -5.0584 C.3       1 <0>        -0.1417
     10 C10         2.9493   -8.0741   -5.0667 C.2       1 <0>         0.5063
     11 O1          2.4411   -8.6925   -4.1555 O.2       1 <0>        -0.5181
     12 N1          3.5323   -8.7345   -6.0867 N.am      1 <0>        -0.7333
     13 C11         3.5522  -10.1994   -6.0948 C.3       1 <0>         0.1218
     14 H1          3.6564  -10.5669   -5.0739 H         1 <0>         0.1074
     15 C12         4.7327  -10.6888   -6.9361 C.3       1 <0>         0.0531
     16 N2          5.9753  -10.0889   -6.4321 N.3       1 <0>        -0.6762
     17 C13         7.1327  -10.5372   -7.2177 C.3       1 <0>         0.1302
     18 C14         7.6115  -11.8576   -6.6889 C.2       1 <0>        -0.0781
     19 C15         8.8581  -12.1618   -6.5191 C.2       1 <0>        -0.1830
     20 C16         9.9985  -11.2329   -6.8171 C.3       1 <0>         0.1191
     21 C17         9.5262  -10.0913   -7.7200 C.3       1 <0>         0.0910
     22 C18         8.2479   -9.4941   -7.1184 C.3       1 <0>         0.1111
     23 O2          7.8759   -8.3224   -7.8471 O.3       1 <0>        -0.5553
     24 O3          9.2511  -10.5960   -9.0283 O.3       1 <0>        -0.5446
     25 O4         11.0399  -11.9573   -7.4750 O.3       1 <0>        -0.5603
     26 C19         9.1847  -13.5340   -5.9885 C.3       1 <0>         0.1117
     27 O5          7.9738  -14.2604   -5.7692 O.3       1 <0>        -0.5653
     28 C20         2.2461  -10.7238   -6.6948 C.3       1 <0>         0.1399
     29 H2          2.1419  -10.3563   -7.7156 H         1 <0>         0.0621
     30 C21         2.2665  -12.2307   -6.7031 C.ar      1 <0>        -0.0845
     31 C22         1.8719  -12.9334   -5.5800 C.ar      1 <0>        -0.0860
     32 C23         1.8906  -14.3156   -5.5876 C.ar      1 <0>        -0.1221
     33 C24         2.3036  -14.9951   -6.7184 C.ar      1 <0>        -0.1145
     34 C25         2.6974  -14.2923   -7.8418 C.ar      1 <0>        -0.1206
     35 C26         2.6746  -12.9102   -7.8356 C.ar      1 <0>        -0.1107
     36 O6          1.1436  -10.2667   -5.9090 O.3       1 <0>        -0.5430
     37 H3          1.0039    1.9031    0.0027 H         1 <0>         0.0531
     38 H4         -0.5459    1.8868   -0.8726 H         1 <0>         0.0532
     39 H5         -0.5289    1.8773    0.9072 H         1 <0>         0.0533
     40 H6          0.5293   -0.3651    0.8851 H         1 <0>         0.0603
     41 H7         -1.0205   -0.3814    0.0098 H         1 <0>         0.0604
     42 H8          0.1910   -0.1364   -2.1398 H         1 <0>         0.0604
     43 H9          1.7408   -0.1202   -1.2645 H         1 <0>         0.0603
     44 H10         1.2661   -2.3884   -0.3821 H         1 <0>         0.0608
     45 H11        -0.2836   -2.4046   -1.2575 H         1 <0>         0.0610
     46 H12         0.9279   -2.1597   -3.4071 H         1 <0>         0.0604
     47 H13         2.4777   -2.1435   -2.5317 H         1 <0>         0.0602
     48 H14         2.0030   -4.4117   -1.6494 H         1 <0>         0.0620
     49 H15         0.4533   -4.4279   -2.5247 H         1 <0>         0.0623
     50 H16         1.6648   -4.1829   -4.6743 H         1 <0>         0.0616
     51 H17         3.2146   -4.1667   -3.7990 H         1 <0>         0.0614
     52 H18         2.7399   -6.4349   -2.9166 H         1 <0>         0.0699
     53 H19         1.1901   -6.4511   -3.7919 H         1 <0>         0.0705
     54 H20         2.4017   -6.2062   -5.9415 H         1 <0>         0.0928
     55 H21         3.9515   -6.1900   -5.0662 H         1 <0>         0.0936
     56 H22         3.9388   -8.2400   -6.8155 H         1 <0>         0.3992
     57 H23         4.8005  -11.7747   -6.8700 H         1 <0>         0.0950
     58 H24         4.5838  -10.3967   -7.9756 H         1 <0>         0.0386
     59 H25         5.9128   -9.0819   -6.4227 H         1 <0>         0.3479
     60 H26         6.8383  -10.6533   -8.2607 H         1 <0>         0.0771
     61 H27         6.8698  -12.6000   -6.4340 H         1 <0>         0.1319
     62 H28        10.3819  -10.8205   -5.8839 H         1 <0>         0.0723
     63 H29        10.2984   -9.3240   -7.7748 H         1 <0>         0.0698
     64 H30         8.4196   -9.2397   -6.0725 H         1 <0>         0.0827
     65 H31         8.5391   -7.6190   -7.8260 H         1 <0>         0.3838
     66 H32        10.0140  -11.0031   -9.4612 H         1 <0>         0.3858
     67 H33        11.3966  -12.6914   -6.9563 H         1 <0>         0.3841
     68 H34         9.8016  -14.0662   -6.7125 H         1 <0>         0.0569
     69 H35         9.7275  -13.4402   -5.0479 H         1 <0>         0.0541
     70 H36         8.1082  -15.1548   -5.4268 H         1 <0>         0.3840
     71 H37         1.5492  -12.4026   -4.6965 H         1 <0>         0.1290
     72 H38         1.5830  -14.8647   -4.7100 H         1 <0>         0.1227
     73 H39         2.3189  -16.0750   -6.7241 H         1 <0>         0.1216
     74 H40         3.0204  -14.8231   -8.7251 H         1 <0>         0.1229
     75 H41         2.9787  -12.3611   -8.7146 H         1 <0>         0.1199
     76 H42         1.0684   -9.3039   -5.8593 H         1 <0>         0.3745
@<TRIPOS>BOND
     1    1    2 1
     2    1   37 1
     3    1   38 1
     4    1   39 1
     5    2    3 1
     6    2   40 1
     7    2   41 1
     8    3    4 1
     9    3   42 1
    10    3   43 1
    11    4    5 1
    12    4   44 1
    13    4   45 1
    14    5    6 1
    15    5   46 1
    16    5   47 1
    17    6    7 1
    18    6   48 1
    19    6   49 1
    20    7    8 1
    21    7   50 1
    22    7   51 1
    23    8    9 1
    24    8   52 1
    25    8   53 1
    26    9   10 1
    27    9   54 1
    28    9   55 1
    29   10   11 2
    30   10   12 am
    31   12   13 1
    32   12   56 1
    33   13   14 1
    34   13   15 1
    35   13   28 1
    36   15   16 1
    37   15   57 1
    38   15   58 1
    39   16   17 1
    40   16   59 1
    41   17   22 1
    42   17   18 1
    43   17   60 1
    44   18   19 2
    45   18   61 1
    46   19   20 1
    47   19   26 1
    48   20   21 1
    49   20   25 1
    50   20   62 1
    51   21   22 1
    52   21   24 1
    53   21   63 1
    54   22   23 1
    55   22   64 1
    56   23   65 1
    57   24   66 1
    58   25   67 1
    59   26   27 1
    60   26   68 1
    61   26   69 1
    62   27   70 1
    63   28   29 1
    64   28   30 1
    65   28   36 1
    66   30   35 ar
    67   30   31 ar
    68   31   32 ar
    69   31   71 1
    70   32   33 ar
    71   32   72 1
    72   33   34 ar
    73   33   73 1
    74   34   35 ar
    75   34   74 1
    76   35   75 1
    77   36   76 1
@<TRIPOS>MOLECULE
CHEMBL60801__4
   77    78     0     0     0
SMALL
USER_CHARGES

@<TRIPOS>ATOM
      1 C1         -0.0187    1.5258    0.0104 C.3       1 <0>        -0.1550
      2 C2          0.0021   -0.0041    0.0020 C.3       1 <0>        -0.1264
      3 C3         -1.4333   -0.5336    0.0129 C.3       1 <0>        -0.1211
      4 C4         -1.4126   -2.0635    0.0045 C.3       1 <0>        -0.1218
      5 C5         -2.8479   -2.5931    0.0153 C.3       1 <0>        -0.1200
      6 C6         -2.8272   -4.1229    0.0069 C.3       1 <0>        -0.1201
      7 C7         -4.2626   -4.6525    0.0178 C.3       1 <0>        -0.1197
      8 C8         -4.2418   -6.1823    0.0094 C.3       1 <0>        -0.1043
      9 C9         -5.6772   -6.7119    0.0202 C.3       1 <0>        -0.1395
     10 C10        -5.6568   -8.2187    0.0119 C.2       1 <0>         0.5160
     11 O1         -4.5984   -8.8108   -0.0014 O.2       1 <0>        -0.4890
     12 N1         -6.8147   -8.9084    0.0193 N.am      1 <0>        -0.7602
     13 C11        -6.7948  -10.3733    0.0112 C.3       1 <0>         0.0950
     14 H1         -5.9538  -10.7220   -0.5882 H         1 <0>         0.1237
     15 C12        -8.1009  -10.8977   -0.5888 C.3       1 <0>        -0.0191
     16 N2         -8.3005  -10.3073   -1.9190 N.4       1 <0>        -0.4965
     17 C13        -9.5545  -10.8109   -2.4951 C.3       1 <0>         0.0831
     18 C14        -9.4425  -12.2914   -2.7131 C.2       1 <0>        -0.2031
     19 C15        -9.8628  -12.9021   -3.7742 C.2       1 <0>        -0.0736
     20 C16       -10.5122  -12.2136   -4.9389 C.3       1 <0>         0.1040
     21 C17       -10.9825  -10.8161   -4.5297 C.3       1 <0>         0.0925
     22 C18        -9.8231  -10.1013   -3.8240 C.3       1 <0>         0.0957
     23 O2         -8.6538  -10.1573   -4.6434 O.3       1 <0>        -0.5660
     24 O3        -11.3654  -10.0786   -5.6922 O.3       1 <0>        -0.5548
     25 O4        -11.6346  -12.9817   -5.3774 O.3       1 <0>        -0.5538
     26 C19        -9.6898  -14.3975   -3.8442 C.3       1 <0>         0.0931
     27 O5         -9.0576  -14.8603   -2.6491 O.3       1 <0>        -0.5730
     28 C20        -6.6485  -10.8892    1.4442 C.3       1 <0>         0.1463
     29 H2         -6.5445  -11.9742    1.4308 H         1 <0>         0.1252
     30 C21        -5.4263  -10.2752    2.0768 C.ar      1 <0>        -0.1141
     31 C22        -5.5095   -9.0337    2.6790 C.ar      1 <0>        -0.1117
     32 C23        -4.3884   -8.4704    3.2593 C.ar      1 <0>        -0.1111
     33 C24        -3.1842   -9.1488    3.2378 C.ar      1 <0>        -0.1042
     34 C25        -3.1012  -10.3907    2.6364 C.ar      1 <0>        -0.1057
     35 C26        -4.2233  -10.9559    2.0599 C.ar      1 <0>        -0.0922
     36 O6         -7.8071  -10.5310    2.2001 O.3       1 <0>        -0.5452
     37 H3          1.0039    1.9031    0.0027 H         1 <0>         0.0549
     38 H4         -0.5459    1.8868   -0.8726 H         1 <0>         0.0535
     39 H5         -0.5289    1.8773    0.9072 H         1 <0>         0.0537
     40 H6          0.5123   -0.3556   -0.8948 H         1 <0>         0.0604
     41 H7          0.5293   -0.3651    0.8851 H         1 <0>         0.0607
     42 H8         -1.9435   -0.1821    0.9097 H         1 <0>         0.0608
     43 H9         -1.9605   -0.1726   -0.8702 H         1 <0>         0.0605
     44 H10        -0.9024   -2.4150   -0.8923 H         1 <0>         0.0609
     45 H11        -0.8854   -2.4246    0.8875 H         1 <0>         0.0612
     46 H12        -3.3581   -2.2415    0.9121 H         1 <0>         0.0610
     47 H13        -3.3751   -2.2320   -0.8677 H         1 <0>         0.0604
     48 H14        -2.3170   -4.4744   -0.8899 H         1 <0>         0.0618
     49 H15        -2.3000   -4.4840    0.8900 H         1 <0>         0.0625
     50 H16        -4.7728   -4.3010    0.9146 H         1 <0>         0.0627
     51 H17        -4.7898   -4.2914   -0.8653 H         1 <0>         0.0614
     52 H18        -3.7316   -6.5338   -0.8874 H         1 <0>         0.0691
     53 H19        -3.7146   -6.5434    0.8924 H         1 <0>         0.0728
     54 H20        -6.1874   -6.3604    0.9170 H         1 <0>         0.0964
     55 H21        -6.2044   -6.3508   -0.8628 H         1 <0>         0.0931
     56 H22        -7.6612   -8.4349    0.0299 H         1 <0>         0.3988
     57 H23        -8.0503  -11.9830   -0.6768 H         1 <0>         0.1532
     58 H24        -8.9339  -10.6242    0.0588 H         1 <0>         0.1477
     59 H25        -8.3473   -9.3027   -1.8375 H         1 <0>         0.4243
     60 H26       -10.3749  -10.6102   -1.8060 H         1 <0>         0.1606
     61 H27        -8.9823  -12.8843   -1.9365 H         1 <0>         0.1538
     62 H28        -9.7942  -12.1287   -5.7546 H         1 <0>         0.0957
     63 H29       -11.8301  -10.8994   -3.8493 H         1 <0>         0.0875
     64 H30       -10.0934   -9.0621   -3.6364 H         1 <0>         0.1030
     65 H31        -8.7546   -9.7254   -5.5027 H         1 <0>         0.4159
     66 H32       -12.0844  -10.4838   -6.1960 H         1 <0>         0.4063
     67 H33       -11.4105  -13.8779   -5.6632 H         1 <0>         0.3922
     68 H34       -10.6659  -14.8718   -3.9460 H         1 <0>         0.0772
     69 H35        -9.0707  -14.6517   -4.7045 H         1 <0>         0.0749
     70 H36        -8.9142  -15.8163   -2.6249 H         1 <0>         0.3994
     71 H37        -6.4504   -8.5036    2.6958 H         1 <0>         0.1094
     72 H38        -4.4533   -7.5002    3.7292 H         1 <0>         0.1209
     73 H39        -2.3082   -8.7085    3.6906 H         1 <0>         0.1230
     74 H40        -2.1603  -10.9206    2.6193 H         1 <0>         0.1235
     75 H41        -4.1593  -11.9278    1.5933 H         1 <0>         0.1183
     76 H42        -7.9621   -9.5781    2.2544 H         1 <0>         0.3752
     77 H43        -7.5294  -10.5605   -2.5185 H         1 <0>         0.4378
@<TRIPOS>BOND
     1    1    2 1
     2    1   37 1
     3    1   38 1
     4    1   39 1
     5    2    3 1
     6    2   40 1
     7    2   41 1
     8    3    4 1
     9    3   42 1
    10    3   43 1
    11    4    5 1
    12    4   44 1
    13    4   45 1
    14    5    6 1
    15    5   46 1
    16    5   47 1
    17    6    7 1
    18    6   48 1
    19    6   49 1
    20    7    8 1
    21    7   50 1
    22    7   51 1
    23    8    9 1
    24    8   52 1
    25    8   53 1
    26    9   10 1
    27    9   54 1
    28    9   55 1
    29   10   11 2
    30   10   12 am
    31   12   13 1
    32   12   56 1
    33   13   14 1
    34   13   15 1
    35   13   28 1
    36   15   16 1
    37   15   57 1
    38   15   58 1
    39   16   17 1
    40   16   59 1
    41   16   77 1
    42   17   22 1
    43   17   18 1
    44   17   60 1
    45   18   19 2
    46   18   61 1
    47   19   20 1
    48   19   26 1
    49   20   21 1
    50   20   25 1
    51   20   62 1
    52   21   22 1
    53   21   24 1
    54   21   63 1
    55   22   23 1
    56   22   64 1
    57   23   65 1
    58   24   66 1
    59   25   67 1
    60   26   27 1
    61   26   68 1
    62   26   69 1
    63   27   70 1
    64   28   29 1
    65   28   30 1
    66   28   36 1
    67   30   35 ar
    68   30   31 ar
    69   31   32 ar
    70   31   71 1
    71   32   33 ar
    72   32   72 1
    73   33   34 ar
    74   33   73 1
    75   34   35 ar
    76   34   74 1
    77   35   75 1
    78   36   76 1
@<TRIPOS>MOLECULE
CHEMBL60801__5
   76    77     0     0     0
SMALL
USER_CHARGES

@<TRIPOS>ATOM
      1 C1         -0.0187    1.5258    0.0104 C.3       1 <0>        -0.1542
      2 C2          0.0021   -0.0041    0.0020 C.3       1 <0>        -0.1264
      3 C3          0.7182   -0.4975   -1.2568 C.3       1 <0>        -0.1209
      4 C4          0.7390   -2.0273   -1.2652 C.3       1 <0>        -0.1218
      5 C5          1.4551   -2.5207   -2.5240 C.3       1 <0>        -0.1199
      6 C6          1.4758   -4.0506   -2.5324 C.3       1 <0>        -0.1206
      7 C7          2.1920   -4.5440   -3.7912 C.3       1 <0>        -0.1198
      8 C8          2.2127   -6.0738   -3.7996 C.3       1 <0>        -0.1049
      9 C9          2.9289   -6.5673   -5.0584 C.3       1 <0>        -0.1416
     10 C10         2.9493   -8.0741   -5.0667 C.2       1 <0>         0.5070
     11 O1          2.4411   -8.6925   -4.1555 O.2       1 <0>        -0.5162
     12 N1          3.5323   -8.7345   -6.0867 N.am      1 <0>        -0.7339
     13 C11         3.5522  -10.1994   -6.0948 C.3       1 <0>         0.1222
     14 H1          3.6564  -10.5669   -5.0739 H         1 <0>         0.1087
     15 C12         4.7327  -10.6888   -6.9361 C.3       1 <0>         0.0497
     16 N2          5.9753  -10.0889   -6.4321 N.3       1 <0>        -0.6606
     17 C13         7.1327  -10.5372   -7.2177 C.3       1 <0>         0.1248
     18 C14         7.6115  -11.8576   -6.6889 C.2       1 <0>        -0.0895
     19 C15         8.8581  -12.1618   -6.5191 C.2       1 <0>        -0.1711
     20 C16         9.9985  -11.2332   -6.8180 C.3       1 <0>         0.1245
     21 C17         9.5259  -10.0917   -7.7208 C.3       1 <0>         0.0864
     22 C18         8.2479   -9.4941   -7.1184 C.3       1 <0>         0.1173
     23 O2          8.4731   -9.1606   -5.7473 O.3       1 <0>        -0.5388
     24 O3         10.5386   -9.0860   -7.7935 O.3       1 <0>        -0.5622
     25 O4         11.0393  -11.9580   -7.4764 O.3       1 <0>        -0.5657
     26 C19         9.1847  -13.5340   -5.9885 C.3       1 <0>         0.1110
     27 O5          7.9738  -14.2604   -5.7692 O.3       1 <0>        -0.5652
     28 C20         2.2461  -10.7238   -6.6948 C.3       1 <0>         0.1404
     29 H2          2.1419  -10.3563   -7.7156 H         1 <0>         0.0615
     30 C21         2.2665  -12.2307   -6.7031 C.ar      1 <0>        -0.0849
     31 C22         1.8719  -12.9334   -5.5800 C.ar      1 <0>        -0.0854
     32 C23         1.8906  -14.3156   -5.5876 C.ar      1 <0>        -0.1214
     33 C24         2.3036  -14.9951   -6.7184 C.ar      1 <0>        -0.1142
     34 C25         2.6974  -14.2923   -7.8418 C.ar      1 <0>        -0.1209
     35 C26         2.6746  -12.9102   -7.8356 C.ar      1 <0>        -0.1115
     36 O6          1.1436  -10.2667   -5.9090 O.3       1 <0>        -0.5427
     37 H3          1.0039    1.9031    0.0027 H         1 <0>         0.0532
     38 H4         -0.5459    1.8868   -0.8726 H         1 <0>         0.0531
     39 H5         -0.5289    1.8773    0.9072 H         1 <0>         0.0534
     40 H6          0.5293   -0.3651    0.8851 H         1 <0>         0.0604
     41 H7         -1.0205   -0.3814    0.0098 H         1 <0>         0.0604
     42 H8          0.1910   -0.1364   -2.1398 H         1 <0>         0.0603
     43 H9          1.7408   -0.1202   -1.2645 H         1 <0>         0.0603
     44 H10         1.2661   -2.3884   -0.3821 H         1 <0>         0.0610
     45 H11        -0.2836   -2.4046   -1.2575 H         1 <0>         0.0609
     46 H12         0.9279   -2.1597   -3.4071 H         1 <0>         0.0602
     47 H13         2.4777   -2.1435   -2.5317 H         1 <0>         0.0603
     48 H14         2.0030   -4.4117   -1.6494 H         1 <0>         0.0623
     49 H15         0.4533   -4.4279   -2.5247 H         1 <0>         0.0622
     50 H16         1.6648   -4.1829   -4.6743 H         1 <0>         0.0613
     51 H17         3.2146   -4.1667   -3.7990 H         1 <0>         0.0616
     52 H18         2.7399   -6.4349   -2.9166 H         1 <0>         0.0705
     53 H19         1.1901   -6.4511   -3.7919 H         1 <0>         0.0704
     54 H20         2.4017   -6.2062   -5.9415 H         1 <0>         0.0923
     55 H21         3.9515   -6.1900   -5.0662 H         1 <0>         0.0939
     56 H22         3.9388   -8.2400   -6.8155 H         1 <0>         0.3970
     57 H23         4.8005  -11.7747   -6.8700 H         1 <0>         0.0968
     58 H24         4.5838  -10.3967   -7.9756 H         1 <0>         0.0361
     59 H25         5.9128   -9.0819   -6.4227 H         1 <0>         0.3461
     60 H26         6.8383  -10.6533   -8.2607 H         1 <0>         0.0707
     61 H27         6.8698  -12.6000   -6.4340 H         1 <0>         0.1298
     62 H28        10.3827  -10.8207   -5.8851 H         1 <0>         0.0789
     63 H29         9.3153  -10.4767   -8.7185 H         1 <0>         0.0740
     64 H30         7.9641   -8.6004   -7.6742 H         1 <0>         0.0702
     65 H31         9.1689   -8.5030   -5.6116 H         1 <0>         0.3823
     66 H32        11.3803   -9.4005   -8.1508 H         1 <0>         0.3918
     67 H33        11.3962  -12.6921   -6.9580 H         1 <0>         0.3822
     68 H34         9.8016  -14.0662   -6.7125 H         1 <0>         0.0569
     69 H35         9.7275  -13.4402   -5.0479 H         1 <0>         0.0554
     70 H36         8.1082  -15.1548   -5.4268 H         1 <0>         0.3838
     71 H37         1.5492  -12.4026   -4.6965 H         1 <0>         0.1292
     72 H38         1.5830  -14.8647   -4.7100 H         1 <0>         0.1230
     73 H39         2.3189  -16.0750   -6.7241 H         1 <0>         0.1218
     74 H40         3.0204  -14.8231   -8.7251 H         1 <0>         0.1228
     75 H41         2.9787  -12.3611   -8.7146 H         1 <0>         0.1193
     76 H42         1.0684   -9.3039   -5.8593 H         1 <0>         0.3746
@<TRIPOS>BOND
     1    1    2 1
     2    1   37 1
     3    1   38 1
     4    1   39 1
     5    2    3 1
     6    2   40 1
     7    2   41 1
     8    3    4 1
     9    3   42 1
    10    3   43 1
    11    4    5 1
    12    4   44 1
    13    4   45 1
    14    5    6 1
    15    5   46 1
    16    5   47 1
    17    6    7 1
    18    6   48 1
    19    6   49 1
    20    7    8 1
    21    7   50 1
    22    7   51 1
    23    8    9 1
    24    8   52 1
    25    8   53 1
    26    9   10 1
    27    9   54 1
    28    9   55 1
    29   10   11 2
    30   10   12 am
    31   12   13 1
    32   12   56 1
    33   13   14 1
    34   13   15 1
    35   13   28 1
    36   15   16 1
    37   15   57 1
    38   15   58 1
    39   16   17 1
    40   16   59 1
    41   17   22 1
    42   17   18 1
    43   17   60 1
    44   18   19 2
    45   18   61 1
    46   19   20 1
    47   19   26 1
    48   20   21 1
    49   20   25 1
    50   20   62 1
    51   21   22 1
    52   21   24 1
    53   21   63 1
    54   22   23 1
    55   22   64 1
    56   23   65 1
    57   24   66 1
    58   25   67 1
    59   26   27 1
    60   26   68 1
    61   26   69 1
    62   27   70 1
    63   28   29 1
    64   28   30 1
    65   28   36 1
    66   30   35 ar
    67   30   31 ar
    68   31   32 ar
    69   31   71 1
    70   32   33 ar
    71   32   72 1
    72   33   34 ar
    73   33   73 1
    74   34   35 ar
    75   34   74 1
    76   35   75 1
    77   36   76 1
@<TRIPOS>MOLECULE
CHEMBL60801__6
   77    78     0     0     0
SMALL
USER_CHARGES

@<TRIPOS>ATOM
      1 C1         -0.0187    1.5258    0.0104 C.3       1 <0>        -0.1550
      2 C2          0.0021   -0.0041    0.0020 C.3       1 <0>        -0.1263
      3 C3         -1.4333   -0.5336    0.0129 C.3       1 <0>        -0.1211
      4 C4         -1.4126   -2.0635    0.0045 C.3       1 <0>        -0.1217
      5 C5         -2.8479   -2.5931    0.0153 C.3       1 <0>        -0.1201
      6 C6         -2.8272   -4.1229    0.0069 C.3       1 <0>        -0.1199
      7 C7         -4.2626   -4.6525    0.0178 C.3       1 <0>        -0.1199
      8 C8         -4.2418   -6.1823    0.0094 C.3       1 <0>        -0.1039
      9 C9         -5.6772   -6.7119    0.0202 C.3       1 <0>        -0.1400
     10 C10        -5.6568   -8.2187    0.0119 C.2       1 <0>         0.5163
     11 O1         -4.5984   -8.8108   -0.0014 O.2       1 <0>        -0.4904
     12 N1         -6.8147   -8.9084    0.0193 N.am      1 <0>        -0.7603
     13 C11        -6.7948  -10.3733    0.0112 C.3       1 <0>         0.0944
     14 H1         -5.9538  -10.7220   -0.5882 H         1 <0>         0.1236
     15 C12        -8.1009  -10.8977   -0.5888 C.3       1 <0>        -0.0184
     16 N2         -8.3005  -10.3073   -1.9190 N.4       1 <0>        -0.5001
     17 C13        -9.5545  -10.8109   -2.4951 C.3       1 <0>         0.0812
     18 C14        -9.4425  -12.2914   -2.7131 C.2       1 <0>        -0.2031
     19 C15        -9.8628  -12.9021   -3.7742 C.2       1 <0>        -0.0815
     20 C16       -10.5113  -12.2135   -4.9393 C.3       1 <0>         0.0984
     21 C17       -10.9819  -10.8160   -4.5303 C.3       1 <0>         0.0951
     22 C18        -9.8231  -10.1013   -3.8240 C.3       1 <0>         0.0982
     23 O2        -10.1774   -8.7389   -3.5780 O.3       1 <0>        -0.5580
     24 O3        -11.3639  -10.0784   -5.6931 O.3       1 <0>        -0.5543
     25 O4        -11.6335  -12.9815   -5.3787 O.3       1 <0>        -0.5490
     26 C19        -9.6898  -14.3975   -3.8442 C.3       1 <0>         0.0929
     27 O5         -9.0576  -14.8603   -2.6491 O.3       1 <0>        -0.5731
     28 C20        -6.6485  -10.8892    1.4442 C.3       1 <0>         0.1463
     29 H2         -6.5445  -11.9742    1.4308 H         1 <0>         0.1252
     30 C21        -5.4263  -10.2752    2.0768 C.ar      1 <0>        -0.1142
     31 C22        -5.5095   -9.0337    2.6790 C.ar      1 <0>        -0.1115
     32 C23        -4.3884   -8.4704    3.2593 C.ar      1 <0>        -0.1108
     33 C24        -3.1842   -9.1488    3.2378 C.ar      1 <0>        -0.1041
     34 C25        -3.1012  -10.3907    2.6364 C.ar      1 <0>        -0.1059
     35 C26        -4.2233  -10.9559    2.0599 C.ar      1 <0>        -0.0923
     36 O6         -7.8071  -10.5310    2.2001 O.3       1 <0>        -0.5452
     37 H3          1.0039    1.9031    0.0027 H         1 <0>         0.0548
     38 H4         -0.5459    1.8868   -0.8726 H         1 <0>         0.0535
     39 H5         -0.5289    1.8773    0.9072 H         1 <0>         0.0537
     40 H6          0.5123   -0.3556   -0.8948 H         1 <0>         0.0604
     41 H7          0.5293   -0.3651    0.8851 H         1 <0>         0.0606
     42 H8         -1.9435   -0.1821    0.9097 H         1 <0>         0.0609
     43 H9         -1.9605   -0.1726   -0.8702 H         1 <0>         0.0605
     44 H10        -0.9024   -2.4150   -0.8923 H         1 <0>         0.0608
     45 H11        -0.8854   -2.4246    0.8875 H         1 <0>         0.0612
     46 H12        -3.3581   -2.2415    0.9121 H         1 <0>         0.0611
     47 H13        -3.3751   -2.2320   -0.8677 H         1 <0>         0.0605
     48 H14        -2.3170   -4.4744   -0.8899 H         1 <0>         0.0616
     49 H15        -2.3000   -4.4840    0.8900 H         1 <0>         0.0625
     50 H16        -4.7728   -4.3010    0.9146 H         1 <0>         0.0629
     51 H17        -4.7898   -4.2914   -0.8653 H         1 <0>         0.0616
     52 H18        -3.7316   -6.5338   -0.8874 H         1 <0>         0.0687
     53 H19        -3.7146   -6.5434    0.8924 H         1 <0>         0.0727
     54 H20        -6.1874   -6.3604    0.9170 H         1 <0>         0.0968
     55 H21        -6.2044   -6.3508   -0.8628 H         1 <0>         0.0937
     56 H22        -7.6612   -8.4349    0.0299 H         1 <0>         0.4005
     57 H23        -8.0503  -11.9830   -0.6768 H         1 <0>         0.1536
     58 H24        -8.9339  -10.6242    0.0588 H         1 <0>         0.1489
     59 H25        -8.3473   -9.3027   -1.8375 H         1 <0>         0.4324
     60 H26       -10.3749  -10.6102   -1.8060 H         1 <0>         0.1595
     61 H27        -8.9823  -12.8843   -1.9365 H         1 <0>         0.1602
     62 H28        -9.7927  -12.1286   -5.7545 H         1 <0>         0.0940
     63 H29       -11.8299  -10.8993   -3.8506 H         1 <0>         0.0885
     64 H30        -8.9312  -10.1440   -4.4490 H         1 <0>         0.0901
     65 H31       -10.3614   -8.2296   -4.3791 H         1 <0>         0.4167
     66 H32       -12.0826  -10.4836   -6.1974 H         1 <0>         0.4075
     67 H33       -11.4091  -13.8777   -5.6644 H         1 <0>         0.3931
     68 H34       -10.6659  -14.8718   -3.9460 H         1 <0>         0.0794
     69 H35        -9.0707  -14.6517   -4.7045 H         1 <0>         0.0766
     70 H36        -8.9142  -15.8163   -2.6249 H         1 <0>         0.4007
     71 H37        -6.4504   -8.5036    2.6958 H         1 <0>         0.1096
     72 H38        -4.4533   -7.5002    3.7292 H         1 <0>         0.1210
     73 H39        -2.3082   -8.7085    3.6906 H         1 <0>         0.1230
     74 H40        -2.1603  -10.9206    2.6193 H         1 <0>         0.1234
     75 H41        -4.1593  -11.9278    1.5933 H         1 <0>         0.1182
     76 H42        -7.9621   -9.5781    2.2544 H         1 <0>         0.3758
     77 H43        -7.5294  -10.5605   -2.5185 H         1 <0>         0.4277
@<TRIPOS>BOND
     1    1    2 1
     2    1   37 1
     3    1   38 1
     4    1   39 1
     5    2    3 1
     6    2   40 1
     7    2   41 1
     8    3    4 1
     9    3   42 1
    10    3   43 1
    11    4    5 1
    12    4   44 1
    13    4   45 1
    14    5    6 1
    15    5   46 1
    16    5   47 1
    17    6    7 1
    18    6   48 1
    19    6   49 1
    20    7    8 1
    21    7   50 1
    22    7   51 1
    23    8    9 1
    24    8   52 1
    25    8   53 1
    26    9   10 1
    27    9   54 1
    28    9   55 1
    29   10   11 2
    30   10   12 am
    31   12   13 1
    32   12   56 1
    33   13   14 1
    34   13   15 1
    35   13   28 1
    36   15   16 1
    37   15   57 1
    38   15   58 1
    39   16   17 1
    40   16   59 1
    41   16   77 1
    42   17   22 1
    43   17   18 1
    44   17   60 1
    45   18   19 2
    46   18   61 1
    47   19   20 1
    48   19   26 1
    49   20   21 1
    50   20   25 1
    51   20   62 1
    52   21   22 1
    53   21   24 1
    54   21   63 1
    55   22   23 1
    56   22   64 1
    57   23   65 1
    58   24   66 1
    59   25   67 1
    60   26   27 1
    61   26   68 1
    62   26   69 1
    63   27   70 1
    64   28   29 1
    65   28   30 1
    66   28   36 1
    67   30   35 ar
    68   30   31 ar
    69   31   32 ar
    70   31   71 1
    71   32   33 ar
    72   32   72 1
    73   33   34 ar
    74   33   73 1
    75   34   35 ar
    76   34   74 1
    77   35   75 1
    78   36   76 1
@<TRIPOS>MOLECULE
CHEMBL60801__7
   76    77     0     0     0
SMALL
USER_CHARGES

@<TRIPOS>ATOM
      1 C1         -0.0187    1.5258    0.0104 C.3       1 <0>        -0.1542
      2 C2          0.0021   -0.0041    0.0020 C.3       1 <0>        -0.1264
      3 C3          0.7182   -0.4975   -1.2568 C.3       1 <0>        -0.1209
      4 C4          0.7390   -2.0273   -1.2652 C.3       1 <0>        -0.1217
      5 C5          1.4551   -2.5207   -2.5240 C.3       1 <0>        -0.1200
      6 C6          1.4758   -4.0506   -2.5324 C.3       1 <0>        -0.1205
      7 C7          2.1920   -4.5440   -3.7912 C.3       1 <0>        -0.1199
      8 C8          2.2127   -6.0738   -3.7996 C.3       1 <0>        -0.1046
      9 C9          2.9289   -6.5673   -5.0584 C.3       1 <0>        -0.1419
     10 C10         2.9493   -8.0741   -5.0667 C.2       1 <0>         0.5067
     11 O1          2.4411   -8.6925   -4.1555 O.2       1 <0>        -0.5176
     12 N1          3.5323   -8.7345   -6.0867 N.am      1 <0>        -0.7339
     13 C11         3.5522  -10.1994   -6.0948 C.3       1 <0>         0.1216
     14 H1          3.6564  -10.5669   -5.0739 H         1 <0>         0.1080
     15 C12         4.7327  -10.6888   -6.9361 C.3       1 <0>         0.0520
     16 N2          5.9753  -10.0889   -6.4321 N.3       1 <0>        -0.6714
     17 C13         7.1327  -10.5372   -7.2177 C.3       1 <0>         0.1250
     18 C14         7.6115  -11.8576   -6.6889 C.2       1 <0>        -0.0910
     19 C15         8.8581  -12.1618   -6.5191 C.2       1 <0>        -0.1791
     20 C16         9.9985  -11.2329   -6.8171 C.3       1 <0>         0.1186
     21 C17         9.5262  -10.0913   -7.7200 C.3       1 <0>         0.0899
     22 C18         8.2479   -9.4941   -7.1184 C.3       1 <0>         0.1169
     23 O2          7.8759   -8.3224   -7.8471 O.3       1 <0>        -0.5598
     24 O3         10.5386   -9.0854   -7.7919 O.3       1 <0>        -0.5616
     25 O4         11.0399  -11.9573   -7.4750 O.3       1 <0>        -0.5607
     26 C19         9.1847  -13.5340   -5.9885 C.3       1 <0>         0.1109
     27 O5          7.9738  -14.2604   -5.7692 O.3       1 <0>        -0.5654
     28 C20         2.2461  -10.7238   -6.6948 C.3       1 <0>         0.1401
     29 H2          2.1419  -10.3563   -7.7156 H         1 <0>         0.0622
     30 C21         2.2665  -12.2307   -6.7031 C.ar      1 <0>        -0.0847
     31 C22         1.8719  -12.9334   -5.5800 C.ar      1 <0>        -0.0856
     32 C23         1.8906  -14.3156   -5.5876 C.ar      1 <0>        -0.1217
     33 C24         2.3036  -14.9951   -6.7184 C.ar      1 <0>        -0.1144
     34 C25         2.6974  -14.2923   -7.8418 C.ar      1 <0>        -0.1209
     35 C26         2.6746  -12.9102   -7.8356 C.ar      1 <0>        -0.1114
     36 O6          1.1436  -10.2667   -5.9090 O.3       1 <0>        -0.5428
     37 H3          1.0039    1.9031    0.0027 H         1 <0>         0.0532
     38 H4         -0.5459    1.8868   -0.8726 H         1 <0>         0.0532
     39 H5         -0.5289    1.8773    0.9072 H         1 <0>         0.0533
     40 H6          0.5293   -0.3651    0.8851 H         1 <0>         0.0603
     41 H7         -1.0205   -0.3814    0.0098 H         1 <0>         0.0604
     42 H8          0.1910   -0.1364   -2.1398 H         1 <0>         0.0604
     43 H9          1.7408   -0.1202   -1.2645 H         1 <0>         0.0603
     44 H10         1.2661   -2.3884   -0.3821 H         1 <0>         0.0608
     45 H11        -0.2836   -2.4046   -1.2575 H         1 <0>         0.0609
     46 H12         0.9279   -2.1597   -3.4071 H         1 <0>         0.0604
     47 H13         2.4777   -2.1435   -2.5317 H         1 <0>         0.0603
     48 H14         2.0030   -4.4117   -1.6494 H         1 <0>         0.0620
     49 H15         0.4533   -4.4279   -2.5247 H         1 <0>         0.0622
     50 H16         1.6648   -4.1829   -4.6743 H         1 <0>         0.0616
     51 H17         3.2146   -4.1667   -3.7990 H         1 <0>         0.0616
     52 H18         2.7399   -6.4349   -2.9166 H         1 <0>         0.0700
     53 H19         1.1901   -6.4511   -3.7919 H         1 <0>         0.0704
     54 H20         2.4017   -6.2062   -5.9415 H         1 <0>         0.0929
     55 H21         3.9515   -6.1900   -5.0662 H         1 <0>         0.0941
     56 H22         3.9388   -8.2400   -6.8155 H         1 <0>         0.3993
     57 H23         4.8005  -11.7747   -6.8700 H         1 <0>         0.0962
     58 H24         4.5838  -10.3967   -7.9756 H         1 <0>         0.0395
     59 H25         5.9128   -9.0819   -6.4227 H         1 <0>         0.3507
     60 H26         6.8383  -10.6533   -8.2607 H         1 <0>         0.0700
     61 H27         6.8698  -12.6000   -6.4340 H         1 <0>         0.1364
     62 H28        10.3819  -10.8205   -5.8839 H         1 <0>         0.0764
     63 H29         9.3164  -10.4762   -8.7180 H         1 <0>         0.0750
     64 H30         8.4196   -9.2397   -6.0725 H         1 <0>         0.0766
     65 H31         8.5391   -7.6190   -7.8260 H         1 <0>         0.3932
     66 H32        11.3806   -9.3996   -8.1487 H         1 <0>         0.3929
     67 H33        11.3966  -12.6914   -6.9563 H         1 <0>         0.3831
     68 H34         9.8016  -14.0662   -6.7125 H         1 <0>         0.0592
     69 H35         9.7275  -13.4402   -5.0479 H         1 <0>         0.0569
     70 H36         8.1082  -15.1548   -5.4268 H         1 <0>         0.3853
     71 H37         1.5492  -12.4026   -4.6965 H         1 <0>         0.1292
     72 H38         1.5830  -14.8647   -4.7100 H         1 <0>         0.1229
     73 H39         2.3189  -16.0750   -6.7241 H         1 <0>         0.1217
     74 H40         3.0204  -14.8231   -8.7251 H         1 <0>         0.1229
     75 H41         2.9787  -12.3611   -8.7146 H         1 <0>         0.1197
     76 H42         1.0684   -9.3039   -5.8593 H         1 <0>         0.3748
@<TRIPOS>BOND
     1    1    2 1
     2    1   37 1
     3    1   38 1
     4    1   39 1
     5    2    3 1
     6    2   40 1
     7    2   41 1
     8    3    4 1
     9    3   42 1
    10    3   43 1
    11    4    5 1
    12    4   44 1
    13    4   45 1
    14    5    6 1
    15    5   46 1
    16    5   47 1
    17    6    7 1
    18    6   48 1
    19    6   49 1
    20    7    8 1
    21    7   50 1
    22    7   51 1
    23    8    9 1
    24    8   52 1
    25    8   53 1
    26    9   10 1
    27    9   54 1
    28    9   55 1
    29   10   11 2
    30   10   12 am
    31   12   13 1
    32   12   56 1
    33   13   14 1
    34   13   15 1
    35   13   28 1
    36   15   16 1
    37   15   57 1
    38   15   58 1
    39   16   17 1
    40   16   59 1
    41   17   22 1
    42   17   18 1
    43   17   60 1
    44   18   19 2
    45   18   61 1
    46   19   20 1
    47   19   26 1
    48   20   21 1
    49   20   25 1
    50   20   62 1
    51   21   22 1
    52   21   24 1
    53   21   63 1
    54   22   23 1
    55   22   64 1
    56   23   65 1
    57   24   66 1
    58   25   67 1
    59   26   27 1
    60   26   68 1
    61   26   69 1
    62   27   70 1
    63   28   29 1
    64   28   30 1
    65   28   36 1
    66   30   35 ar
    67   30   31 ar
    68   31   32 ar
    69   31   71 1
    70   32   33 ar
    71   32   72 1
    72   33   34 ar
    73   33   73 1
    74   34   35 ar
    75   34   74 1
    76   35   75 1
    77   36   76 1
@<TRIPOS>MOLECULE
CHEMBL60801__8
   77    78     0     0     0
SMALL
USER_CHARGES

@<TRIPOS>ATOM
      1 C1         -0.0187    1.5258    0.0104 C.3       1 <0>        -0.1550
      2 C2          0.0021   -0.0041    0.0020 C.3       1 <0>        -0.1264
      3 C3         -1.4333   -0.5336    0.0129 C.3       1 <0>        -0.1210
      4 C4         -1.4126   -2.0635    0.0045 C.3       1 <0>        -0.1218
      5 C5         -2.8479   -2.5931    0.0153 C.3       1 <0>        -0.1200
      6 C6         -2.8272   -4.1229    0.0069 C.3       1 <0>        -0.1201
      7 C7         -4.2626   -4.6525    0.0178 C.3       1 <0>        -0.1197
      8 C8         -4.2418   -6.1823    0.0094 C.3       1 <0>        -0.1042
      9 C9         -5.6772   -6.7119    0.0202 C.3       1 <0>        -0.1394
     10 C10        -5.6568   -8.2187    0.0119 C.2       1 <0>         0.5160
     11 O1         -4.5984   -8.8108   -0.0014 O.2       1 <0>        -0.4896
     12 N1         -6.8147   -8.9084    0.0193 N.am      1 <0>        -0.7596
     13 C11        -6.7948  -10.3733    0.0112 C.3       1 <0>         0.0953
     14 H1         -5.9538  -10.7220   -0.5882 H         1 <0>         0.1231
     15 C12        -8.1009  -10.8977   -0.5888 C.3       1 <0>        -0.0186
     16 N2         -8.3005  -10.3073   -1.9190 N.4       1 <0>        -0.4985
     17 C13        -9.5545  -10.8109   -2.4951 C.3       1 <0>         0.0858
     18 C14        -9.4425  -12.2914   -2.7131 C.2       1 <0>        -0.1775
     19 C15        -9.8628  -12.9021   -3.7742 C.2       1 <0>        -0.0859
     20 C16       -10.5122  -12.2136   -4.9389 C.3       1 <0>         0.1095
     21 C17       -10.9825  -10.8161   -4.5297 C.3       1 <0>         0.0863
     22 C18        -9.8231  -10.1013   -3.8240 C.3       1 <0>         0.0975
     23 O2         -8.6538  -10.1573   -4.6434 O.3       1 <0>        -0.5473
     24 O3        -12.0936  -10.9253   -3.6377 O.3       1 <0>        -0.5520
     25 O4         -9.5709  -12.1024   -6.0083 O.3       1 <0>        -0.5394
     26 C19        -9.6898  -14.3975   -3.8442 C.3       1 <0>         0.0973
     27 O5         -9.0576  -14.8603   -2.6491 O.3       1 <0>        -0.5740
     28 C20        -6.6485  -10.8892    1.4442 C.3       1 <0>         0.1460
     29 H2         -6.5445  -11.9742    1.4308 H         1 <0>         0.1248
     30 C21        -5.4263  -10.2752    2.0768 C.ar      1 <0>        -0.1135
     31 C22        -5.5095   -9.0337    2.6790 C.ar      1 <0>        -0.1117
     32 C23        -4.3884   -8.4704    3.2593 C.ar      1 <0>        -0.1111
     33 C24        -3.1842   -9.1488    3.2378 C.ar      1 <0>        -0.1045
     34 C25        -3.1012  -10.3907    2.6364 C.ar      1 <0>        -0.1058
     35 C26        -4.2233  -10.9559    2.0599 C.ar      1 <0>        -0.0923
     36 O6         -7.8071  -10.5310    2.2001 O.3       1 <0>        -0.5451
     37 H3          1.0039    1.9031    0.0027 H         1 <0>         0.0548
     38 H4         -0.5459    1.8868   -0.8726 H         1 <0>         0.0534
     39 H5         -0.5289    1.8773    0.9072 H         1 <0>         0.0537
     40 H6          0.5123   -0.3556   -0.8948 H         1 <0>         0.0604
     41 H7          0.5293   -0.3651    0.8851 H         1 <0>         0.0607
     42 H8         -1.9435   -0.1821    0.9097 H         1 <0>         0.0608
     43 H9         -1.9605   -0.1726   -0.8702 H         1 <0>         0.0604
     44 H10        -0.9024   -2.4150   -0.8923 H         1 <0>         0.0609
     45 H11        -0.8854   -2.4246    0.8875 H         1 <0>         0.0613
     46 H12        -3.3581   -2.2415    0.9121 H         1 <0>         0.0610
     47 H13        -3.3751   -2.2320   -0.8677 H         1 <0>         0.0604
     48 H14        -2.3170   -4.4744   -0.8899 H         1 <0>         0.0618
     49 H15        -2.3000   -4.4840    0.8900 H         1 <0>         0.0626
     50 H16        -4.7728   -4.3010    0.9146 H         1 <0>         0.0626
     51 H17        -4.7898   -4.2914   -0.8653 H         1 <0>         0.0613
     52 H18        -3.7316   -6.5338   -0.8874 H         1 <0>         0.0691
     53 H19        -3.7146   -6.5434    0.8924 H         1 <0>         0.0728
     54 H20        -6.1874   -6.3604    0.9170 H         1 <0>         0.0963
     55 H21        -6.2044   -6.3508   -0.8628 H         1 <0>         0.0929
     56 H22        -7.6612   -8.4349    0.0299 H         1 <0>         0.3988
     57 H23        -8.0503  -11.9830   -0.6768 H         1 <0>         0.1515
     58 H24        -8.9339  -10.6242    0.0588 H         1 <0>         0.1467
     59 H25        -8.3473   -9.3027   -1.8375 H         1 <0>         0.4228
     60 H26       -10.3749  -10.6102   -1.8060 H         1 <0>         0.1621
     61 H27        -8.9823  -12.8843   -1.9365 H         1 <0>         0.1486
     62 H28       -11.3684  -12.7995   -5.2734 H         1 <0>         0.0792
     63 H29       -11.2745  -10.2536   -5.4164 H         1 <0>         0.0944
     64 H30       -10.0934   -9.0621   -3.6364 H         1 <0>         0.0941
     65 H31        -8.7546   -9.7254   -5.5027 H         1 <0>         0.4104
     66 H32       -12.8575  -11.3826   -4.0151 H         1 <0>         0.4003
     67 H33        -9.2364  -12.9515   -6.3278 H         1 <0>         0.3901
     68 H34       -10.6659  -14.8718   -3.9460 H         1 <0>         0.0720
     69 H35        -9.0707  -14.6517   -4.7045 H         1 <0>         0.0704
     70 H36        -8.9142  -15.8163   -2.6249 H         1 <0>         0.3979
     71 H37        -6.4504   -8.5036    2.6958 H         1 <0>         0.1094
     72 H38        -4.4533   -7.5002    3.7292 H         1 <0>         0.1208
     73 H39        -2.3082   -8.7085    3.6906 H         1 <0>         0.1228
     74 H40        -2.1603  -10.9206    2.6193 H         1 <0>         0.1233
     75 H41        -4.1593  -11.9278    1.5933 H         1 <0>         0.1182
     76 H42        -7.9621   -9.5781    2.2544 H         1 <0>         0.3751
     77 H43        -7.5294  -10.5605   -2.5185 H         1 <0>         0.4361
@<TRIPOS>BOND
     1    1    2 1
     2    1   37 1
     3    1   38 1
     4    1   39 1
     5    2    3 1
     6    2   40 1
     7    2   41 1
     8    3    4 1
     9    3   42 1
    10    3   43 1
    11    4    5 1
    12    4   44 1
    13    4   45 1
    14    5    6 1
    15    5   46 1
    16    5   47 1
    17    6    7 1
    18    6   48 1
    19    6   49 1
    20    7    8 1
    21    7   50 1
    22    7   51 1
    23    8    9 1
    24    8   52 1
    25    8   53 1
    26    9   10 1
    27    9   54 1
    28    9   55 1
    29   10   11 2
    30   10   12 am
    31   12   13 1
    32   12   56 1
    33   13   14 1
    34   13   15 1
    35   13   28 1
    36   15   16 1
    37   15   57 1
    38   15   58 1
    39   16   17 1
    40   16   59 1
    41   16   77 1
    42   17   22 1
    43   17   18 1
    44   17   60 1
    45   18   19 2
    46   18   61 1
    47   19   20 1
    48   19   26 1
    49   20   21 1
    50   20   25 1
    51   20   62 1
    52   21   22 1
    53   21   24 1
    54   21   63 1
    55   22   23 1
    56   22   64 1
    57   23   65 1
    58   24   66 1
    59   25   67 1
    60   26   27 1
    61   26   68 1
    62   26   69 1
    63   27   70 1
    64   28   29 1
    65   28   30 1
    66   28   36 1
    67   30   35 ar
    68   30   31 ar
    69   31   32 ar
    70   31   71 1
    71   32   33 ar
    72   32   72 1
    73   33   34 ar
    74   33   73 1
    75   34   35 ar
    76   34   74 1
    77   35   75 1
    78   36   76 1
@<TRIPOS>MOLECULE
CHEMBL60801__9
   76    77     0     0     0
SMALL
USER_CHARGES

@<TRIPOS>ATOM
      1 C1         -0.0187    1.5258    0.0104 C.3       1 <0>        -0.1542
      2 C2          0.0021   -0.0041    0.0020 C.3       1 <0>        -0.1264
      3 C3          0.7182   -0.4975   -1.2568 C.3       1 <0>        -0.1209
      4 C4          0.7390   -2.0273   -1.2652 C.3       1 <0>        -0.1218
      5 C5          1.4551   -2.5207   -2.5240 C.3       1 <0>        -0.1198
      6 C6          1.4758   -4.0506   -2.5324 C.3       1 <0>        -0.1206
      7 C7          2.1920   -4.5440   -3.7912 C.3       1 <0>        -0.1197
      8 C8          2.2127   -6.0738   -3.7996 C.3       1 <0>        -0.1048
      9 C9          2.9289   -6.5673   -5.0584 C.3       1 <0>        -0.1414
     10 C10         2.9493   -8.0741   -5.0667 C.2       1 <0>         0.5069
     11 O1          2.4411   -8.6925   -4.1555 O.2       1 <0>        -0.5168
     12 N1          3.5323   -8.7345   -6.0867 N.am      1 <0>        -0.7331
     13 C11         3.5522  -10.1994   -6.0948 C.3       1 <0>         0.1225
     14 H1          3.6564  -10.5669   -5.0739 H         1 <0>         0.1080
     15 C12         4.7327  -10.6888   -6.9361 C.3       1 <0>         0.0507
     16 N2          5.9753  -10.0889   -6.4321 N.3       1 <0>        -0.6641
     17 C13         7.1327  -10.5372   -7.2177 C.3       1 <0>         0.1297
     18 C14         7.6115  -11.8576   -6.6889 C.2       1 <0>        -0.0641
     19 C15         8.8581  -12.1618   -6.5191 C.2       1 <0>        -0.1842
     20 C16         9.9985  -11.2332   -6.8180 C.3       1 <0>         0.1307
     21 C17         9.5259  -10.0917   -7.7208 C.3       1 <0>         0.0811
     22 C18         8.2479   -9.4941   -7.1184 C.3       1 <0>         0.1157
     23 O2          8.4731   -9.1606   -5.7473 O.3       1 <0>        -0.5187
     24 O3          9.2499  -10.5965   -9.0288 O.3       1 <0>        -0.5489
     25 O4         10.5022  -10.6925   -5.5949 O.3       1 <0>        -0.5448
     26 C19         9.1847  -13.5340   -5.9885 C.3       1 <0>         0.1147
     27 O5          7.9738  -14.2604   -5.7692 O.3       1 <0>        -0.5660
     28 C20         2.2461  -10.7238   -6.6948 C.3       1 <0>         0.1402
     29 H2          2.1419  -10.3563   -7.7156 H         1 <0>         0.0614
     30 C21         2.2665  -12.2307   -6.7031 C.ar      1 <0>        -0.0843
     31 C22         1.8719  -12.9334   -5.5800 C.ar      1 <0>        -0.0856
     32 C23         1.8906  -14.3156   -5.5876 C.ar      1 <0>        -0.1217
     33 C24         2.3036  -14.9951   -6.7184 C.ar      1 <0>        -0.1146
     34 C25         2.6974  -14.2923   -7.8418 C.ar      1 <0>        -0.1209
     35 C26         2.6746  -12.9102   -7.8356 C.ar      1 <0>        -0.1110
     36 O6          1.1436  -10.2667   -5.9090 O.3       1 <0>        -0.5430
     37 H3          1.0039    1.9031    0.0027 H         1 <0>         0.0532
     38 H4         -0.5459    1.8868   -0.8726 H         1 <0>         0.0531
     39 H5         -0.5289    1.8773    0.9072 H         1 <0>         0.0533
     40 H6          0.5293   -0.3651    0.8851 H         1 <0>         0.0604
     41 H7         -1.0205   -0.3814    0.0098 H         1 <0>         0.0604
     42 H8          0.1910   -0.1364   -2.1398 H         1 <0>         0.0603
     43 H9          1.7408   -0.1202   -1.2645 H         1 <0>         0.0603
     44 H10         1.2661   -2.3884   -0.3821 H         1 <0>         0.0610
     45 H11        -0.2836   -2.4046   -1.2575 H         1 <0>         0.0609
     46 H12         0.9279   -2.1597   -3.4071 H         1 <0>         0.0602
     47 H13         2.4777   -2.1435   -2.5317 H         1 <0>         0.0603
     48 H14         2.0030   -4.4117   -1.6494 H         1 <0>         0.0623
     49 H15         0.4533   -4.4279   -2.5247 H         1 <0>         0.0622
     50 H16         1.6648   -4.1829   -4.6743 H         1 <0>         0.0612
     51 H17         3.2146   -4.1667   -3.7990 H         1 <0>         0.0615
     52 H18         2.7399   -6.4349   -2.9166 H         1 <0>         0.0705
     53 H19         1.1901   -6.4511   -3.7919 H         1 <0>         0.0703
     54 H20         2.4017   -6.2062   -5.9415 H         1 <0>         0.0921
     55 H21         3.9515   -6.1900   -5.0662 H         1 <0>         0.0937
     56 H22         3.9388   -8.2400   -6.8155 H         1 <0>         0.3969
     57 H23         4.8005  -11.7747   -6.8700 H         1 <0>         0.0949
     58 H24         4.5838  -10.3967   -7.9756 H         1 <0>         0.0346
     59 H25         5.9128   -9.0819   -6.4227 H         1 <0>         0.3438
     60 H26         6.8383  -10.6533   -8.2607 H         1 <0>         0.0743
     61 H27         6.8698  -12.6000   -6.4340 H         1 <0>         0.1238
     62 H28        10.7924  -11.7860   -7.3203 H         1 <0>         0.0570
     63 H29        10.2983   -9.3246   -7.7762 H         1 <0>         0.0725
     64 H30         7.9641   -8.6004   -7.6742 H         1 <0>         0.0609
     65 H31         9.1689   -8.5030   -5.6116 H         1 <0>         0.3760
     66 H32        10.0123  -11.0039   -9.4622 H         1 <0>         0.3841
     67 H33        10.8303  -11.3589   -4.9758 H         1 <0>         0.3796
     68 H34         9.8016  -14.0662   -6.7125 H         1 <0>         0.0509
     69 H35         9.7275  -13.4402   -5.0479 H         1 <0>         0.0513
     70 H36         8.1082  -15.1548   -5.4268 H         1 <0>         0.3823
     71 H37         1.5492  -12.4026   -4.6965 H         1 <0>         0.1291
     72 H38         1.5830  -14.8647   -4.7100 H         1 <0>         0.1228
     73 H39         2.3189  -16.0750   -6.7241 H         1 <0>         0.1216
     74 H40         3.0204  -14.8231   -8.7251 H         1 <0>         0.1227
     75 H41         2.9787  -12.3611   -8.7146 H         1 <0>         0.1194
     76 H42         1.0684   -9.3039   -5.8593 H         1 <0>         0.3744
@<TRIPOS>BOND
     1    1    2 1
     2    1   37 1
     3    1   38 1
     4    1   39 1
     5    2    3 1
     6    2   40 1
     7    2   41 1
     8    3    4 1
     9    3   42 1
    10    3   43 1
    11    4    5 1
    12    4   44 1
    13    4   45 1
    14    5    6 1
    15    5   46 1
    16    5   47 1
    17    6    7 1
    18    6   48 1
    19    6   49 1
    20    7    8 1
    21    7   50 1
    22    7   51 1
    23    8    9 1
    24    8   52 1
    25    8   53 1
    26    9   10 1
    27    9   54 1
    28    9   55 1
    29   10   11 2
    30   10   12 am
    31   12   13 1
    32   12   56 1
    33   13   14 1
    34   13   15 1
    35   13   28 1
    36   15   16 1
    37   15   57 1
    38   15   58 1
    39   16   17 1
    40   16   59 1
    41   17   22 1
    42   17   18 1
    43   17   60 1
    44   18   19 2
    45   18   61 1
    46   19   20 1
    47   19   26 1
    48   20   21 1
    49   20   25 1
    50   20   62 1
    51   21   22 1
    52   21   24 1
    53   21   63 1
    54   22   23 1
    55   22   64 1
    56   23   65 1
    57   24   66 1
    58   25   67 1
    59   26   27 1
    60   26   68 1
    61   26   69 1
    62   27   70 1
    63   28   29 1
    64   28   30 1
    65   28   36 1
    66   30   35 ar
    67   30   31 ar
    68   31   32 ar
    69   31   71 1
    70   32   33 ar
    71   32   72 1
    72   33   34 ar
    73   33   73 1
    74   34   35 ar
    75   34   74 1
    76   35   75 1
    77   36   76 1
@<TRIPOS>MOLECULE
CHEMBL60801__10
   77    78     0     0     0
SMALL
USER_CHARGES

@<TRIPOS>ATOM
      1 C1         -0.0187    1.5258    0.0104 C.3       1 <0>        -0.1550
      2 C2          0.0021   -0.0041    0.0020 C.3       1 <0>        -0.1263
      3 C3         -1.4333   -0.5336    0.0129 C.3       1 <0>        -0.1211
      4 C4         -1.4126   -2.0635    0.0045 C.3       1 <0>        -0.1217
      5 C5         -2.8479   -2.5931    0.0153 C.3       1 <0>        -0.1201
      6 C6         -2.8272   -4.1229    0.0069 C.3       1 <0>        -0.1200
      7 C7         -4.2626   -4.6525    0.0178 C.3       1 <0>        -0.1199
      8 C8         -4.2418   -6.1823    0.0094 C.3       1 <0>        -0.1038
      9 C9         -5.6772   -6.7119    0.0202 C.3       1 <0>        -0.1400
     10 C10        -5.6568   -8.2187    0.0119 C.2       1 <0>         0.5163
     11 O1         -4.5984   -8.8108   -0.0014 O.2       1 <0>        -0.4909
     12 N1         -6.8147   -8.9084    0.0193 N.am      1 <0>        -0.7599
     13 C11        -6.7948  -10.3733    0.0112 C.3       1 <0>         0.0946
     14 H1         -5.9538  -10.7220   -0.5882 H         1 <0>         0.1230
     15 C12        -8.1009  -10.8977   -0.5888 C.3       1 <0>        -0.0179
     16 N2         -8.3005  -10.3073   -1.9190 N.4       1 <0>        -0.5022
     17 C13        -9.5545  -10.8109   -2.4951 C.3       1 <0>         0.0828
     18 C14        -9.4425  -12.2914   -2.7131 C.2       1 <0>        -0.1784
     19 C15        -9.8628  -12.9021   -3.7742 C.2       1 <0>        -0.0927
     20 C16       -10.5113  -12.2135   -4.9393 C.3       1 <0>         0.1006
     21 C17       -10.9819  -10.8160   -4.5303 C.3       1 <0>         0.0907
     22 C18        -9.8231  -10.1013   -3.8240 C.3       1 <0>         0.0995
     23 O2        -10.1774   -8.7389   -3.5780 O.3       1 <0>        -0.5597
     24 O3        -12.0937  -10.9252   -3.6392 O.3       1 <0>        -0.5453
     25 O4         -9.5692  -12.1022   -6.0080 O.3       1 <0>        -0.5488
     26 C19        -9.6898  -14.3975   -3.8442 C.3       1 <0>         0.0971
     27 O5         -9.0576  -14.8603   -2.6491 O.3       1 <0>        -0.5741
     28 C20        -6.6485  -10.8892    1.4442 C.3       1 <0>         0.1461
     29 H2         -6.5445  -11.9742    1.4308 H         1 <0>         0.1249
     30 C21        -5.4263  -10.2752    2.0768 C.ar      1 <0>        -0.1136
     31 C22        -5.5095   -9.0337    2.6790 C.ar      1 <0>        -0.1115
     32 C23        -4.3884   -8.4704    3.2593 C.ar      1 <0>        -0.1109
     33 C24        -3.1842   -9.1488    3.2378 C.ar      1 <0>        -0.1044
     34 C25        -3.1012  -10.3907    2.6364 C.ar      1 <0>        -0.1060
     35 C26        -4.2233  -10.9559    2.0599 C.ar      1 <0>        -0.0924
     36 O6         -7.8071  -10.5310    2.2001 O.3       1 <0>        -0.5451
     37 H3          1.0039    1.9031    0.0027 H         1 <0>         0.0548
     38 H4         -0.5459    1.8868   -0.8726 H         1 <0>         0.0535
     39 H5         -0.5289    1.8773    0.9072 H         1 <0>         0.0537
     40 H6          0.5123   -0.3556   -0.8948 H         1 <0>         0.0604
     41 H7          0.5293   -0.3651    0.8851 H         1 <0>         0.0607
     42 H8         -1.9435   -0.1821    0.9097 H         1 <0>         0.0608
     43 H9         -1.9605   -0.1726   -0.8702 H         1 <0>         0.0605
     44 H10        -0.9024   -2.4150   -0.8923 H         1 <0>         0.0608
     45 H11        -0.8854   -2.4246    0.8875 H         1 <0>         0.0612
     46 H12        -3.3581   -2.2415    0.9121 H         1 <0>         0.0611
     47 H13        -3.3751   -2.2320   -0.8677 H         1 <0>         0.0605
     48 H14        -2.3170   -4.4744   -0.8899 H         1 <0>         0.0616
     49 H15        -2.3000   -4.4840    0.8900 H         1 <0>         0.0625
     50 H16        -4.7728   -4.3010    0.9146 H         1 <0>         0.0628
     51 H17        -4.7898   -4.2914   -0.8653 H         1 <0>         0.0615
     52 H18        -3.7316   -6.5338   -0.8874 H         1 <0>         0.0687
     53 H19        -3.7146   -6.5434    0.8924 H         1 <0>         0.0727
     54 H20        -6.1874   -6.3604    0.9170 H         1 <0>         0.0966
     55 H21        -6.2044   -6.3508   -0.8628 H         1 <0>         0.0936
     56 H22        -7.6612   -8.4349    0.0299 H         1 <0>         0.4005
     57 H23        -8.0503  -11.9830   -0.6768 H         1 <0>         0.1521
     58 H24        -8.9339  -10.6242    0.0588 H         1 <0>         0.1481
     59 H25        -8.3473   -9.3027   -1.8375 H         1 <0>         0.4310
     60 H26       -10.3749  -10.6102   -1.8060 H         1 <0>         0.1632
     61 H27        -8.9823  -12.8843   -1.9365 H         1 <0>         0.1557
     62 H28       -11.3673  -12.7993   -5.2745 H         1 <0>         0.0877
     63 H29       -11.2733  -10.2534   -5.4173 H         1 <0>         0.0962
     64 H30        -8.9312  -10.1440   -4.4490 H         1 <0>         0.1019
     65 H31       -10.3614   -8.2296   -4.3791 H         1 <0>         0.4079
     66 H32       -12.8573  -11.3825   -4.0172 H         1 <0>         0.3961
     67 H33        -9.2345  -12.9513   -6.3273 H         1 <0>         0.3947
     68 H34       -10.6659  -14.8718   -3.9460 H         1 <0>         0.0749
     69 H35        -9.0707  -14.6517   -4.7045 H         1 <0>         0.0721
     70 H36        -8.9142  -15.8163   -2.6249 H         1 <0>         0.3995
     71 H37        -6.4504   -8.5036    2.6958 H         1 <0>         0.1096
     72 H38        -4.4533   -7.5002    3.7292 H         1 <0>         0.1209
     73 H39        -2.3082   -8.7085    3.6906 H         1 <0>         0.1228
     74 H40        -2.1603  -10.9206    2.6193 H         1 <0>         0.1232
     75 H41        -4.1593  -11.9278    1.5933 H         1 <0>         0.1181
     76 H42        -7.9621   -9.5781    2.2544 H         1 <0>         0.3758
     77 H43        -7.5294  -10.5605   -2.5185 H         1 <0>         0.4260
@<TRIPOS>BOND
     1    1    2 1
     2    1   37 1
     3    1   38 1
     4    1   39 1
     5    2    3 1
     6    2   40 1
     7    2   41 1
     8    3    4 1
     9    3   42 1
    10    3   43 1
    11    4    5 1
    12    4   44 1
    13    4   45 1
    14    5    6 1
    15    5   46 1
    16    5   47 1
    17    6    7 1
    18    6   48 1
    19    6   49 1
    20    7    8 1
    21    7   50 1
    22    7   51 1
    23    8    9 1
    24    8   52 1
    25    8   53 1
    26    9   10 1
    27    9   54 1
    28    9   55 1
    29   10   11 2
    30   10   12 am
    31   12   13 1
    32   12   56 1
    33   13   14 1
    34   13   15 1
    35   13   28 1
    36   15   16 1
    37   15   57 1
    38   15   58 1
    39   16   17 1
    40   16   59 1
    41   16   77 1
    42   17   22 1
    43   17   18 1
    44   17   60 1
    45   18   19 2
    46   18   61 1
    47   19   20 1
    48   19   26 1
    49   20   21 1
    50   20   25 1
    51   20   62 1
    52   21   22 1
    53   21   24 1
    54   21   63 1
    55   22   23 1
    56   22   64 1
    57   23   65 1
    58   24   66 1
    59   25   67 1
    60   26   27 1
    61   26   68 1
    62   26   69 1
    63   27   70 1
    64   28   29 1
    65   28   30 1
    66   28   36 1
    67   30   35 ar
    68   30   31 ar
    69   31   32 ar
    70   31   71 1
    71   32   33 ar
    72   32   72 1
    73   33   34 ar
    74   33   73 1
    75   34   35 ar
    76   34   74 1
    77   35   75 1
    78   36   76 1
@<TRIPOS>MOLECULE
CHEMBL60801__11
   76    77     0     0     0
SMALL
USER_CHARGES

@<TRIPOS>ATOM
      1 C1         -0.0187    1.5258    0.0104 C.3       1 <0>        -0.1542
      2 C2          0.0021   -0.0041    0.0020 C.3       1 <0>        -0.1264
      3 C3          0.7182   -0.4975   -1.2568 C.3       1 <0>        -0.1209
      4 C4          0.7390   -2.0273   -1.2652 C.3       1 <0>        -0.1217
      5 C5          1.4551   -2.5207   -2.5240 C.3       1 <0>        -0.1199
      6 C6          1.4758   -4.0506   -2.5324 C.3       1 <0>        -0.1205
      7 C7          2.1920   -4.5440   -3.7912 C.3       1 <0>        -0.1199
      8 C8          2.2127   -6.0738   -3.7996 C.3       1 <0>        -0.1046
      9 C9          2.9289   -6.5673   -5.0584 C.3       1 <0>        -0.1418
     10 C10         2.9493   -8.0741   -5.0667 C.2       1 <0>         0.5065
     11 O1          2.4411   -8.6925   -4.1555 O.2       1 <0>        -0.5182
     12 N1          3.5323   -8.7345   -6.0867 N.am      1 <0>        -0.7332
     13 C11         3.5522  -10.1994   -6.0948 C.3       1 <0>         0.1218
     14 H1          3.6564  -10.5669   -5.0739 H         1 <0>         0.1074
     15 C12         4.7327  -10.6888   -6.9361 C.3       1 <0>         0.0530
     16 N2          5.9753  -10.0889   -6.4321 N.3       1 <0>        -0.6750
     17 C13         7.1327  -10.5372   -7.2177 C.3       1 <0>         0.1287
     18 C14         7.6115  -11.8576   -6.6889 C.2       1 <0>        -0.0664
     19 C15         8.8581  -12.1618   -6.5191 C.2       1 <0>        -0.1910
     20 C16         9.9985  -11.2329   -6.8171 C.3       1 <0>         0.1217
     21 C17         9.5262  -10.0913   -7.7200 C.3       1 <0>         0.0861
     22 C18         8.2479   -9.4941   -7.1184 C.3       1 <0>         0.1146
     23 O2          7.8759   -8.3224   -7.8471 O.3       1 <0>        -0.5609
     24 O3          9.2511  -10.5960   -9.0283 O.3       1 <0>        -0.5422
     25 O4         10.5012  -10.6922   -5.5936 O.3       1 <0>        -0.5549
     26 C19         9.1847  -13.5340   -5.9885 C.3       1 <0>         0.1145
     27 O5          7.9738  -14.2604   -5.7692 O.3       1 <0>        -0.5661
     28 C20         2.2461  -10.7238   -6.6948 C.3       1 <0>         0.1400
     29 H2          2.1419  -10.3563   -7.7156 H         1 <0>         0.0620
     30 C21         2.2665  -12.2307   -6.7031 C.ar      1 <0>        -0.0841
     31 C22         1.8719  -12.9334   -5.5800 C.ar      1 <0>        -0.0858
     32 C23         1.8906  -14.3156   -5.5876 C.ar      1 <0>        -0.1220
     33 C24         2.3036  -14.9951   -6.7184 C.ar      1 <0>        -0.1147
     34 C25         2.6974  -14.2923   -7.8418 C.ar      1 <0>        -0.1209
     35 C26         2.6746  -12.9102   -7.8356 C.ar      1 <0>        -0.1109
     36 O6          1.1436  -10.2667   -5.9090 O.3       1 <0>        -0.5430
     37 H3          1.0039    1.9031    0.0027 H         1 <0>         0.0532
     38 H4         -0.5459    1.8868   -0.8726 H         1 <0>         0.0532
     39 H5         -0.5289    1.8773    0.9072 H         1 <0>         0.0533
     40 H6          0.5293   -0.3651    0.8851 H         1 <0>         0.0603
     41 H7         -1.0205   -0.3814    0.0098 H         1 <0>         0.0604
     42 H8          0.1910   -0.1364   -2.1398 H         1 <0>         0.0603
     43 H9          1.7408   -0.1202   -1.2645 H         1 <0>         0.0603
     44 H10         1.2661   -2.3884   -0.3821 H         1 <0>         0.0609
     45 H11        -0.2836   -2.4046   -1.2575 H         1 <0>         0.0609
     46 H12         0.9279   -2.1597   -3.4071 H         1 <0>         0.0603
     47 H13         2.4777   -2.1435   -2.5317 H         1 <0>         0.0603
     48 H14         2.0030   -4.4117   -1.6494 H         1 <0>         0.0620
     49 H15         0.4533   -4.4279   -2.5247 H         1 <0>         0.0622
     50 H16         1.6648   -4.1829   -4.6743 H         1 <0>         0.0615
     51 H17         3.2146   -4.1667   -3.7990 H         1 <0>         0.0615
     52 H18         2.7399   -6.4349   -2.9166 H         1 <0>         0.0700
     53 H19         1.1901   -6.4511   -3.7919 H         1 <0>         0.0703
     54 H20         2.4017   -6.2062   -5.9415 H         1 <0>         0.0927
     55 H21         3.9515   -6.1900   -5.0662 H         1 <0>         0.0939
     56 H22         3.9388   -8.2400   -6.8155 H         1 <0>         0.3992
     57 H23         4.8005  -11.7747   -6.8700 H         1 <0>         0.0945
     58 H24         4.5838  -10.3967   -7.9756 H         1 <0>         0.0381
     59 H25         5.9128   -9.0819   -6.4227 H         1 <0>         0.3486
     60 H26         6.8383  -10.6533   -8.2607 H         1 <0>         0.0755
     61 H27         6.8698  -12.6000   -6.4340 H         1 <0>         0.1311
     62 H28        10.7929  -11.7854   -7.3189 H         1 <0>         0.0657
     63 H29        10.2984   -9.3240   -7.7748 H         1 <0>         0.0745
     64 H30         8.4196   -9.2397   -6.0725 H         1 <0>         0.0898
     65 H31         8.5391   -7.6190   -7.8260 H         1 <0>         0.3833
     66 H32        10.0140  -11.0031   -9.4612 H         1 <0>         0.3794
     67 H33        10.8290  -11.3586   -4.9744 H         1 <0>         0.3843
     68 H34         9.8016  -14.0662   -6.7125 H         1 <0>         0.0538
     69 H35         9.7275  -13.4402   -5.0479 H         1 <0>         0.0528
     70 H36         8.1082  -15.1548   -5.4268 H         1 <0>         0.3839
     71 H37         1.5492  -12.4026   -4.6965 H         1 <0>         0.1291
     72 H38         1.5830  -14.8647   -4.7100 H         1 <0>         0.1227
     73 H39         2.3189  -16.0750   -6.7241 H         1 <0>         0.1216
     74 H40         3.0204  -14.8231   -8.7251 H         1 <0>         0.1228
     75 H41         2.9787  -12.3611   -8.7146 H         1 <0>         0.1198
     76 H42         1.0684   -9.3039   -5.8593 H         1 <0>         0.3746
@<TRIPOS>BOND
     1    1    2 1
     2    1   37 1
     3    1   38 1
     4    1   39 1
     5    2    3 1
     6    2   40 1
     7    2   41 1
     8    3    4 1
     9    3   42 1
    10    3   43 1
    11    4    5 1
    12    4   44 1
    13    4   45 1
    14    5    6 1
    15    5   46 1
    16    5   47 1
    17    6    7 1
    18    6   48 1
    19    6   49 1
    20    7    8 1
    21    7   50 1
    22    7   51 1
    23    8    9 1
    24    8   52 1
    25    8   53 1
    26    9   10 1
    27    9   54 1
    28    9   55 1
    29   10   11 2
    30   10   12 am
    31   12   13 1
    32   12   56 1
    33   13   14 1
    34   13   15 1
    35   13   28 1
    36   15   16 1
    37   15   57 1
    38   15   58 1
    39   16   17 1
    40   16   59 1
    41   17   22 1
    42   17   18 1
    43   17   60 1
    44   18   19 2
    45   18   61 1
    46   19   20 1
    47   19   26 1
    48   20   21 1
    49   20   25 1
    50   20   62 1
    51   21   22 1
    52   21   24 1
    53   21   63 1
    54   22   23 1
    55   22   64 1
    56   23   65 1
    57   24   66 1
    58   25   67 1
    59   26   27 1
    60   26   68 1
    61   26   69 1
    62   27   70 1
    63   28   29 1
    64   28   30 1
    65   28   36 1
    66   30   35 ar
    67   30   31 ar
    68   31   32 ar
    69   31   71 1
    70   32   33 ar
    71   32   72 1
    72   33   34 ar
    73   33   73 1
    74   34   35 ar
    75   34   74 1
    76   35   75 1
    77   36   76 1
@<TRIPOS>MOLECULE
CHEMBL60801__12
   77    78     0     0     0
SMALL
USER_CHARGES

@<TRIPOS>ATOM
      1 C1         -0.0187    1.5258    0.0104 C.3       1 <0>        -0.1550
      2 C2          0.0021   -0.0041    0.0020 C.3       1 <0>        -0.1264
      3 C3         -1.4333   -0.5336    0.0129 C.3       1 <0>        -0.1210
      4 C4         -1.4126   -2.0635    0.0045 C.3       1 <0>        -0.1218
      5 C5         -2.8479   -2.5931    0.0153 C.3       1 <0>        -0.1200
      6 C6         -2.8272   -4.1229    0.0069 C.3       1 <0>        -0.1201
      7 C7         -4.2626   -4.6525    0.0178 C.3       1 <0>        -0.1197
      8 C8         -4.2418   -6.1823    0.0094 C.3       1 <0>        -0.1043
      9 C9         -5.6772   -6.7119    0.0202 C.3       1 <0>        -0.1395
     10 C10        -5.6568   -8.2187    0.0119 C.2       1 <0>         0.5161
     11 O1         -4.5984   -8.8108   -0.0014 O.2       1 <0>        -0.4891
     12 N1         -6.8147   -8.9084    0.0193 N.am      1 <0>        -0.7600
     13 C11        -6.7948  -10.3733    0.0112 C.3       1 <0>         0.0951
     14 H1         -5.9538  -10.7220   -0.5882 H         1 <0>         0.1236
     15 C12        -8.1009  -10.8977   -0.5888 C.3       1 <0>        -0.0190
     16 N2         -8.3005  -10.3073   -1.9190 N.4       1 <0>        -0.4957
     17 C13        -9.5545  -10.8109   -2.4951 C.3       1 <0>         0.0817
     18 C14        -9.4425  -12.2914   -2.7131 C.2       1 <0>        -0.1908
     19 C15        -9.8628  -12.9021   -3.7742 C.2       1 <0>        -0.0813
     20 C16       -10.5113  -12.2135   -4.9393 C.3       1 <0>         0.1071
     21 C17       -10.9819  -10.8160   -4.5303 C.3       1 <0>         0.0889
     22 C18        -9.8231  -10.1013   -3.8240 C.3       1 <0>         0.0952
     23 O2         -8.6538  -10.1573   -4.6434 O.3       1 <0>        -0.5522
     24 O3        -11.3639  -10.0784   -5.6931 O.3       1 <0>        -0.5452
     25 O4         -9.5692  -12.1022   -6.0080 O.3       1 <0>        -0.5287
     26 C19        -9.6898  -14.3975   -3.8442 C.3       1 <0>         0.0963
     27 O5         -9.0576  -14.8603   -2.6491 O.3       1 <0>        -0.5744
     28 C20        -6.6485  -10.8892    1.4442 C.3       1 <0>         0.1464
     29 H2         -6.5445  -11.9742    1.4308 H         1 <0>         0.1250
     30 C21        -5.4263  -10.2752    2.0768 C.ar      1 <0>        -0.1140
     31 C22        -5.5095   -9.0337    2.6790 C.ar      1 <0>        -0.1116
     32 C23        -4.3884   -8.4704    3.2593 C.ar      1 <0>        -0.1110
     33 C24        -3.1842   -9.1488    3.2378 C.ar      1 <0>        -0.1042
     34 C25        -3.1012  -10.3907    2.6364 C.ar      1 <0>        -0.1057
     35 C26        -4.2233  -10.9559    2.0599 C.ar      1 <0>        -0.0922
     36 O6         -7.8071  -10.5310    2.2001 O.3       1 <0>        -0.5454
     37 H3          1.0039    1.9031    0.0027 H         1 <0>         0.0548
     38 H4         -0.5459    1.8868   -0.8726 H         1 <0>         0.0535
     39 H5         -0.5289    1.8773    0.9072 H         1 <0>         0.0537
     40 H6          0.5123   -0.3556   -0.8948 H         1 <0>         0.0605
     41 H7          0.5293   -0.3651    0.8851 H         1 <0>         0.0606
     42 H8         -1.9435   -0.1821    0.9097 H         1 <0>         0.0608
     43 H9         -1.9605   -0.1726   -0.8702 H         1 <0>         0.0605
     44 H10        -0.9024   -2.4150   -0.8923 H         1 <0>         0.0609
     45 H11        -0.8854   -2.4246    0.8875 H         1 <0>         0.0612
     46 H12        -3.3581   -2.2415    0.9121 H         1 <0>         0.0610
     47 H13        -3.3751   -2.2320   -0.8677 H         1 <0>         0.0605
     48 H14        -2.3170   -4.4744   -0.8899 H         1 <0>         0.0619
     49 H15        -2.3000   -4.4840    0.8900 H         1 <0>         0.0625
     50 H16        -4.7728   -4.3010    0.9146 H         1 <0>         0.0626
     51 H17        -4.7898   -4.2914   -0.8653 H         1 <0>         0.0614
     52 H18        -3.7316   -6.5338   -0.8874 H         1 <0>         0.0692
     53 H19        -3.7146   -6.5434    0.8924 H         1 <0>         0.0728
     54 H20        -6.1874   -6.3604    0.9170 H         1 <0>         0.0963
     55 H21        -6.2044   -6.3508   -0.8628 H         1 <0>         0.0931
     56 H22        -7.6612   -8.4349    0.0299 H         1 <0>         0.3987
     57 H23        -8.0503  -11.9830   -0.6768 H         1 <0>         0.1524
     58 H24        -8.9339  -10.6242    0.0588 H         1 <0>         0.1471
     59 H25        -8.3473   -9.3027   -1.8375 H         1 <0>         0.4242
     60 H26       -10.3749  -10.6102   -1.8060 H         1 <0>         0.1577
     61 H27        -8.9823  -12.8843   -1.9365 H         1 <0>         0.1519
     62 H28       -11.3673  -12.7993   -5.2745 H         1 <0>         0.0790
     63 H29       -11.8299  -10.8993   -3.8506 H         1 <0>         0.0887
     64 H30       -10.0934   -9.0621   -3.6364 H         1 <0>         0.0935
     65 H31        -8.7546   -9.7254   -5.5027 H         1 <0>         0.4149
     66 H32       -12.0826  -10.4836   -6.1974 H         1 <0>         0.3984
     67 H33        -9.2345  -12.9513   -6.3273 H         1 <0>         0.3842
     68 H34       -10.6659  -14.8718   -3.9460 H         1 <0>         0.0740
     69 H35        -9.0707  -14.6517   -4.7045 H         1 <0>         0.0728
     70 H36        -8.9142  -15.8163   -2.6249 H         1 <0>         0.3989
     71 H37        -6.4504   -8.5036    2.6958 H         1 <0>         0.1094
     72 H38        -4.4533   -7.5002    3.7292 H         1 <0>         0.1209
     73 H39        -2.3082   -8.7085    3.6906 H         1 <0>         0.1230
     74 H40        -2.1603  -10.9206    2.6193 H         1 <0>         0.1235
     75 H41        -4.1593  -11.9278    1.5933 H         1 <0>         0.1183
     76 H42        -7.9621   -9.5781    2.2544 H         1 <0>         0.3752
     77 H43        -7.5294  -10.5605   -2.5185 H         1 <0>         0.4386
@<TRIPOS>BOND
     1    1    2 1
     2    1   37 1
     3    1   38 1
     4    1   39 1
     5    2    3 1
     6    2   40 1
     7    2   41 1
     8    3    4 1
     9    3   42 1
    10    3   43 1
    11    4    5 1
    12    4   44 1
    13    4   45 1
    14    5    6 1
    15    5   46 1
    16    5   47 1
    17    6    7 1
    18    6   48 1
    19    6   49 1
    20    7    8 1
    21    7   50 1
    22    7   51 1
    23    8    9 1
    24    8   52 1
    25    8   53 1
    26    9   10 1
    27    9   54 1
    28    9   55 1
    29   10   11 2
    30   10   12 am
    31   12   13 1
    32   12   56 1
    33   13   14 1
    34   13   15 1
    35   13   28 1
    36   15   16 1
    37   15   57 1
    38   15   58 1
    39   16   17 1
    40   16   59 1
    41   16   77 1
    42   17   22 1
    43   17   18 1
    44   17   60 1
    45   18   19 2
    46   18   61 1
    47   19   20 1
    48   19   26 1
    49   20   21 1
    50   20   25 1
    51   20   62 1
    52   21   22 1
    53   21   24 1
    54   21   63 1
    55   22   23 1
    56   22   64 1
    57   23   65 1
    58   24   66 1
    59   25   67 1
    60   26   27 1
    61   26   68 1
    62   26   69 1
    63   27   70 1
    64   28   29 1
    65   28   30 1
    66   28   36 1
    67   30   35 ar
    68   30   31 ar
    69   31   32 ar
    70   31   71 1
    71   32   33 ar
    72   32   72 1
    73   33   34 ar
    74   33   73 1
    75   34   35 ar
    76   34   74 1
    77   35   75 1
    78   36   76 1
@<TRIPOS>MOLECULE
CHEMBL60801__13
   76    77     0     0     0
SMALL
USER_CHARGES

@<TRIPOS>ATOM
      1 C1         -0.0187    1.5258    0.0104 C.3       1 <0>        -0.1542
      2 C2          0.0021   -0.0041    0.0020 C.3       1 <0>        -0.1264
      3 C3          0.7182   -0.4975   -1.2568 C.3       1 <0>        -0.1209
      4 C4          0.7390   -2.0273   -1.2652 C.3       1 <0>        -0.1218
      5 C5          1.4551   -2.5207   -2.5240 C.3       1 <0>        -0.1199
      6 C6          1.4758   -4.0506   -2.5324 C.3       1 <0>        -0.1206
      7 C7          2.1920   -4.5440   -3.7912 C.3       1 <0>        -0.1198
      8 C8          2.2127   -6.0738   -3.7996 C.3       1 <0>        -0.1048
      9 C9          2.9289   -6.5673   -5.0584 C.3       1 <0>        -0.1416
     10 C10         2.9493   -8.0741   -5.0667 C.2       1 <0>         0.5072
     11 O1          2.4411   -8.6925   -4.1555 O.2       1 <0>        -0.5164
     12 N1          3.5323   -8.7345   -6.0867 N.am      1 <0>        -0.7337
     13 C11         3.5522  -10.1994   -6.0948 C.3       1 <0>         0.1223
     14 H1          3.6564  -10.5669   -5.0739 H         1 <0>         0.1085
     15 C12         4.7327  -10.6888   -6.9361 C.3       1 <0>         0.0499
     16 N2          5.9753  -10.0889   -6.4321 N.3       1 <0>        -0.6594
     17 C13         7.1327  -10.5372   -7.2177 C.3       1 <0>         0.1239
     18 C14         7.6115  -11.8576   -6.6889 C.2       1 <0>        -0.0774
     19 C15         8.8581  -12.1618   -6.5191 C.2       1 <0>        -0.1800
     20 C16         9.9985  -11.2329   -6.8171 C.3       1 <0>         0.1295
     21 C17         9.5262  -10.0913   -7.7200 C.3       1 <0>         0.0807
     22 C18         8.2479   -9.4941   -7.1184 C.3       1 <0>         0.1181
     23 O2          8.4731   -9.1606   -5.7473 O.3       1 <0>        -0.5243
     24 O3         10.5386   -9.0854   -7.7919 O.3       1 <0>        -0.5520
     25 O4         10.5012  -10.6922   -5.5936 O.3       1 <0>        -0.5336
     26 C19         9.1847  -13.5340   -5.9885 C.3       1 <0>         0.1140
     27 O5          7.9738  -14.2604   -5.7692 O.3       1 <0>        -0.5664
     28 C20         2.2461  -10.7238   -6.6948 C.3       1 <0>         0.1404
     29 H2          2.1419  -10.3563   -7.7156 H         1 <0>         0.0614
     30 C21         2.2665  -12.2307   -6.7031 C.ar      1 <0>        -0.0845
     31 C22         1.8719  -12.9334   -5.5800 C.ar      1 <0>        -0.0853
     32 C23         1.8906  -14.3156   -5.5876 C.ar      1 <0>        -0.1213
     33 C24         2.3036  -14.9951   -6.7184 C.ar      1 <0>        -0.1144
     34 C25         2.6974  -14.2923   -7.8418 C.ar      1 <0>        -0.1212
     35 C26         2.6746  -12.9102   -7.8356 C.ar      1 <0>        -0.1116
     36 O6          1.1436  -10.2667   -5.9090 O.3       1 <0>        -0.5428
     37 H3          1.0039    1.9031    0.0027 H         1 <0>         0.0532
     38 H4         -0.5459    1.8868   -0.8726 H         1 <0>         0.0531
     39 H5         -0.5289    1.8773    0.9072 H         1 <0>         0.0533
     40 H6          0.5293   -0.3651    0.8851 H         1 <0>         0.0604
     41 H7         -1.0205   -0.3814    0.0098 H         1 <0>         0.0603
     42 H8          0.1910   -0.1364   -2.1398 H         1 <0>         0.0602
     43 H9          1.7408   -0.1202   -1.2645 H         1 <0>         0.0604
     44 H10         1.2661   -2.3884   -0.3821 H         1 <0>         0.0610
     45 H11        -0.2836   -2.4046   -1.2575 H         1 <0>         0.0609
     46 H12         0.9279   -2.1597   -3.4071 H         1 <0>         0.0602
     47 H13         2.4777   -2.1435   -2.5317 H         1 <0>         0.0604
     48 H14         2.0030   -4.4117   -1.6494 H         1 <0>         0.0623
     49 H15         0.4533   -4.4279   -2.5247 H         1 <0>         0.0621
     50 H16         1.6648   -4.1829   -4.6743 H         1 <0>         0.0612
     51 H17         3.2146   -4.1667   -3.7990 H         1 <0>         0.0617
     52 H18         2.7399   -6.4349   -2.9166 H         1 <0>         0.0706
     53 H19         1.1901   -6.4511   -3.7919 H         1 <0>         0.0703
     54 H20         2.4017   -6.2062   -5.9415 H         1 <0>         0.0922
     55 H21         3.9515   -6.1900   -5.0662 H         1 <0>         0.0941
     56 H22         3.9388   -8.2400   -6.8155 H         1 <0>         0.3969
     57 H23         4.8005  -11.7747   -6.8700 H         1 <0>         0.0959
     58 H24         4.5838  -10.3967   -7.9756 H         1 <0>         0.0351
     59 H25         5.9128   -9.0819   -6.4227 H         1 <0>         0.3464
     60 H26         6.8383  -10.6533   -8.2607 H         1 <0>         0.0674
     61 H27         6.8698  -12.6000   -6.4340 H         1 <0>         0.1278
     62 H28        10.7929  -11.7854   -7.3189 H         1 <0>         0.0568
     63 H29         9.3164  -10.4762   -8.7180 H         1 <0>         0.0751
     64 H30         7.9641   -8.6004   -7.6742 H         1 <0>         0.0600
     65 H31         9.1689   -8.5030   -5.6116 H         1 <0>         0.3814
     66 H32        11.3806   -9.3996   -8.1487 H         1 <0>         0.3835
     67 H33        10.8290  -11.3586   -4.9744 H         1 <0>         0.3735
     68 H34         9.8016  -14.0662   -6.7125 H         1 <0>         0.0529
     69 H35         9.7275  -13.4402   -5.0479 H         1 <0>         0.0539
     70 H36         8.1082  -15.1548   -5.4268 H         1 <0>         0.3834
     71 H37         1.5492  -12.4026   -4.6965 H         1 <0>         0.1293
     72 H38         1.5830  -14.8647   -4.7100 H         1 <0>         0.1230
     73 H39         2.3189  -16.0750   -6.7241 H         1 <0>         0.1217
     74 H40         3.0204  -14.8231   -8.7251 H         1 <0>         0.1226
     75 H41         2.9787  -12.3611   -8.7146 H         1 <0>         0.1192
     76 H42         1.0684   -9.3039   -5.8593 H         1 <0>         0.3747
@<TRIPOS>BOND
     1    1    2 1
     2    1   37 1
     3    1   38 1
     4    1   39 1
     5    2    3 1
     6    2   40 1
     7    2   41 1
     8    3    4 1
     9    3   42 1
    10    3   43 1
    11    4    5 1
    12    4   44 1
    13    4   45 1
    14    5    6 1
    15    5   46 1
    16    5   47 1
    17    6    7 1
    18    6   48 1
    19    6   49 1
    20    7    8 1
    21    7   50 1
    22    7   51 1
    23    8    9 1
    24    8   52 1
    25    8   53 1
    26    9   10 1
    27    9   54 1
    28    9   55 1
    29   10   11 2
    30   10   12 am
    31   12   13 1
    32   12   56 1
    33   13   14 1
    34   13   15 1
    35   13   28 1
    36   15   16 1
    37   15   57 1
    38   15   58 1
    39   16   17 1
    40   16   59 1
    41   17   22 1
    42   17   18 1
    43   17   60 1
    44   18   19 2
    45   18   61 1
    46   19   20 1
    47   19   26 1
    48   20   21 1
    49   20   25 1
    50   20   62 1
    51   21   22 1
    52   21   24 1
    53   21   63 1
    54   22   23 1
    55   22   64 1
    56   23   65 1
    57   24   66 1
    58   25   67 1
    59   26   27 1
    60   26   68 1
    61   26   69 1
    62   27   70 1
    63   28   29 1
    64   28   30 1
    65   28   36 1
    66   30   35 ar
    67   30   31 ar
    68   31   32 ar
    69   31   71 1
    70   32   33 ar
    71   32   72 1
    72   33   34 ar
    73   33   73 1
    74   34   35 ar
    75   34   74 1
    76   35   75 1
    77   36   76 1
@<TRIPOS>MOLECULE
CHEMBL60801__14
   77    78     0     0     0
SMALL
USER_CHARGES

@<TRIPOS>ATOM
      1 C1         -0.0187    1.5258    0.0104 C.3       1 <0>        -0.1550
      2 C2          0.0021   -0.0041    0.0020 C.3       1 <0>        -0.1263
      3 C3         -1.4333   -0.5336    0.0129 C.3       1 <0>        -0.1211
      4 C4         -1.4126   -2.0635    0.0045 C.3       1 <0>        -0.1217
      5 C5         -2.8479   -2.5931    0.0153 C.3       1 <0>        -0.1201
      6 C6         -2.8272   -4.1229    0.0069 C.3       1 <0>        -0.1200
      7 C7         -4.2626   -4.6525    0.0178 C.3       1 <0>        -0.1199
      8 C8         -4.2418   -6.1823    0.0094 C.3       1 <0>        -0.1039
      9 C9         -5.6772   -6.7119    0.0202 C.3       1 <0>        -0.1400
     10 C10        -5.6568   -8.2187    0.0119 C.2       1 <0>         0.5164
     11 O1         -4.5984   -8.8108   -0.0014 O.2       1 <0>        -0.4904
     12 N1         -6.8147   -8.9084    0.0193 N.am      1 <0>        -0.7602
     13 C11        -6.7948  -10.3733    0.0112 C.3       1 <0>         0.0943
     14 H1         -5.9538  -10.7220   -0.5882 H         1 <0>         0.1235
     15 C12        -8.1009  -10.8977   -0.5888 C.3       1 <0>        -0.0185
     16 N2         -8.3005  -10.3073   -1.9190 N.4       1 <0>        -0.4995
     17 C13        -9.5545  -10.8109   -2.4951 C.3       1 <0>         0.0800
     18 C14        -9.4425  -12.2914   -2.7131 C.2       1 <0>        -0.1914
     19 C15        -9.8628  -12.9021   -3.7742 C.2       1 <0>        -0.0881
     20 C16       -10.5113  -12.2135   -4.9393 C.3       1 <0>         0.0969
     21 C17       -10.9819  -10.8160   -4.5303 C.3       1 <0>         0.0954
     22 C18        -9.8231  -10.1013   -3.8240 C.3       1 <0>         0.0959
     23 O2        -10.1774   -8.7389   -3.5780 O.3       1 <0>        -0.5637
     24 O3        -11.3639  -10.0784   -5.6931 O.3       1 <0>        -0.5443
     25 O4         -9.5692  -12.1022   -6.0080 O.3       1 <0>        -0.5386
     26 C19        -9.6898  -14.3975   -3.8442 C.3       1 <0>         0.0961
     27 O5         -9.0576  -14.8603   -2.6491 O.3       1 <0>        -0.5745
     28 C20        -6.6485  -10.8892    1.4442 C.3       1 <0>         0.1465
     29 H2         -6.5445  -11.9742    1.4308 H         1 <0>         0.1251
     30 C21        -5.4263  -10.2752    2.0768 C.ar      1 <0>        -0.1141
     31 C22        -5.5095   -9.0337    2.6790 C.ar      1 <0>        -0.1114
     32 C23        -4.3884   -8.4704    3.2593 C.ar      1 <0>        -0.1108
     33 C24        -3.1842   -9.1488    3.2378 C.ar      1 <0>        -0.1041
     34 C25        -3.1012  -10.3907    2.6364 C.ar      1 <0>        -0.1059
     35 C26        -4.2233  -10.9559    2.0599 C.ar      1 <0>        -0.0923
     36 O6         -7.8071  -10.5310    2.2001 O.3       1 <0>        -0.5454
     37 H3          1.0039    1.9031    0.0027 H         1 <0>         0.0548
     38 H4         -0.5459    1.8868   -0.8726 H         1 <0>         0.0535
     39 H5         -0.5289    1.8773    0.9072 H         1 <0>         0.0537
     40 H6          0.5123   -0.3556   -0.8948 H         1 <0>         0.0604
     41 H7          0.5293   -0.3651    0.8851 H         1 <0>         0.0606
     42 H8         -1.9435   -0.1821    0.9097 H         1 <0>         0.0608
     43 H9         -1.9605   -0.1726   -0.8702 H         1 <0>         0.0605
     44 H10        -0.9024   -2.4150   -0.8923 H         1 <0>         0.0608
     45 H11        -0.8854   -2.4246    0.8875 H         1 <0>         0.0612
     46 H12        -3.3581   -2.2415    0.9121 H         1 <0>         0.0611
     47 H13        -3.3751   -2.2320   -0.8677 H         1 <0>         0.0606
     48 H14        -2.3170   -4.4744   -0.8899 H         1 <0>         0.0617
     49 H15        -2.3000   -4.4840    0.8900 H         1 <0>         0.0624
     50 H16        -4.7728   -4.3010    0.9146 H         1 <0>         0.0628
     51 H17        -4.7898   -4.2914   -0.8653 H         1 <0>         0.0616
     52 H18        -3.7316   -6.5338   -0.8874 H         1 <0>         0.0688
     53 H19        -3.7146   -6.5434    0.8924 H         1 <0>         0.0727
     54 H20        -6.1874   -6.3604    0.9170 H         1 <0>         0.0967
     55 H21        -6.2044   -6.3508   -0.8628 H         1 <0>         0.0938
     56 H22        -7.6612   -8.4349    0.0299 H         1 <0>         0.4004
     57 H23        -8.0503  -11.9830   -0.6768 H         1 <0>         0.1530
     58 H24        -8.9339  -10.6242    0.0588 H         1 <0>         0.1486
     59 H25        -8.3473   -9.3027   -1.8375 H         1 <0>         0.4324
     60 H26       -10.3749  -10.6102   -1.8060 H         1 <0>         0.1580
     61 H27        -8.9823  -12.8843   -1.9365 H         1 <0>         0.1590
     62 H28       -11.3673  -12.7993   -5.2745 H         1 <0>         0.0878
     63 H29       -11.8299  -10.8993   -3.8506 H         1 <0>         0.0909
     64 H30        -8.9312  -10.1440   -4.4490 H         1 <0>         0.0963
     65 H31       -10.3614   -8.2296   -4.3791 H         1 <0>         0.4159
     66 H32       -12.0826  -10.4836   -6.1974 H         1 <0>         0.3999
     67 H33        -9.2345  -12.9513   -6.3273 H         1 <0>         0.3891
     68 H34       -10.6659  -14.8718   -3.9460 H         1 <0>         0.0769
     69 H35        -9.0707  -14.6517   -4.7045 H         1 <0>         0.0746
     70 H36        -8.9142  -15.8163   -2.6249 H         1 <0>         0.4005
     71 H37        -6.4504   -8.5036    2.6958 H         1 <0>         0.1096
     72 H38        -4.4533   -7.5002    3.7292 H         1 <0>         0.1210
     73 H39        -2.3082   -8.7085    3.6906 H         1 <0>         0.1230
     74 H40        -2.1603  -10.9206    2.6193 H         1 <0>         0.1234
     75 H41        -4.1593  -11.9278    1.5933 H         1 <0>         0.1181
     76 H42        -7.9621   -9.5781    2.2544 H         1 <0>         0.3758
     77 H43        -7.5294  -10.5605   -2.5185 H         1 <0>         0.4286
@<TRIPOS>BOND
     1    1    2 1
     2    1   37 1
     3    1   38 1
     4    1   39 1
     5    2    3 1
     6    2   40 1
     7    2   41 1
     8    3    4 1
     9    3   42 1
    10    3   43 1
    11    4    5 1
    12    4   44 1
    13    4   45 1
    14    5    6 1
    15    5   46 1
    16    5   47 1
    17    6    7 1
    18    6   48 1
    19    6   49 1
    20    7    8 1
    21    7   50 1
    22    7   51 1
    23    8    9 1
    24    8   52 1
    25    8   53 1
    26    9   10 1
    27    9   54 1
    28    9   55 1
    29   10   11 2
    30   10   12 am
    31   12   13 1
    32   12   56 1
    33   13   14 1
    34   13   15 1
    35   13   28 1
    36   15   16 1
    37   15   57 1
    38   15   58 1
    39   16   17 1
    40   16   59 1
    41   16   77 1
    42   17   22 1
    43   17   18 1
    44   17   60 1
    45   18   19 2
    46   18   61 1
    47   19   20 1
    48   19   26 1
    49   20   21 1
    50   20   25 1
    51   20   62 1
    52   21   22 1
    53   21   24 1
    54   21   63 1
    55   22   23 1
    56   22   64 1
    57   23   65 1
    58   24   66 1
    59   25   67 1
    60   26   27 1
    61   26   68 1
    62   26   69 1
    63   27   70 1
    64   28   29 1
    65   28   30 1
    66   28   36 1
    67   30   35 ar
    68   30   31 ar
    69   31   32 ar
    70   31   71 1
    71   32   33 ar
    72   32   72 1
    73   33   34 ar
    74   33   73 1
    75   34   35 ar
    76   34   74 1
    77   35   75 1
    78   36   76 1
@<TRIPOS>MOLECULE
CHEMBL60801__15
   76    77     0     0     0
SMALL
USER_CHARGES

@<TRIPOS>ATOM
      1 C1         -0.0187    1.5258    0.0104 C.3       1 <0>        -0.1542
      2 C2          0.0021   -0.0041    0.0020 C.3       1 <0>        -0.1264
      3 C3          0.7182   -0.4975   -1.2568 C.3       1 <0>        -0.1209
      4 C4          0.7390   -2.0273   -1.2652 C.3       1 <0>        -0.1217
      5 C5          1.4551   -2.5207   -2.5240 C.3       1 <0>        -0.1200
      6 C6          1.4758   -4.0506   -2.5324 C.3       1 <0>        -0.1205
      7 C7          2.1920   -4.5440   -3.7912 C.3       1 <0>        -0.1200
      8 C8          2.2127   -6.0738   -3.7996 C.3       1 <0>        -0.1046
      9 C9          2.9289   -6.5673   -5.0584 C.3       1 <0>        -0.1420
     10 C10         2.9493   -8.0741   -5.0667 C.2       1 <0>         0.5068
     11 O1          2.4411   -8.6925   -4.1555 O.2       1 <0>        -0.5178
     12 N1          3.5323   -8.7345   -6.0867 N.am      1 <0>        -0.7338
     13 C11         3.5522  -10.1994   -6.0948 C.3       1 <0>         0.1216
     14 H1          3.6564  -10.5669   -5.0739 H         1 <0>         0.1079
     15 C12         4.7327  -10.6888   -6.9361 C.3       1 <0>         0.0520
     16 N2          5.9753  -10.0889   -6.4321 N.3       1 <0>        -0.6705
     17 C13         7.1327  -10.5372   -7.2177 C.3       1 <0>         0.1242
     18 C14         7.6115  -11.8576   -6.6889 C.2       1 <0>        -0.0795
     19 C15         8.8581  -12.1618   -6.5191 C.2       1 <0>        -0.1868
     20 C16         9.9985  -11.2329   -6.8171 C.3       1 <0>         0.1193
     21 C17         9.5262  -10.0913   -7.7200 C.3       1 <0>         0.0880
     22 C18         8.2479   -9.4941   -7.1184 C.3       1 <0>         0.1159
     23 O2          7.8759   -8.3224   -7.8471 O.3       1 <0>        -0.5657
     24 O3         10.5386   -9.0854   -7.7919 O.3       1 <0>        -0.5511
     25 O4         10.5012  -10.6922   -5.5936 O.3       1 <0>        -0.5441
     26 C19         9.1847  -13.5340   -5.9885 C.3       1 <0>         0.1137
     27 O5          7.9738  -14.2604   -5.7692 O.3       1 <0>        -0.5665
     28 C20         2.2461  -10.7238   -6.6948 C.3       1 <0>         0.1401
     29 H2          2.1419  -10.3563   -7.7156 H         1 <0>         0.0621
     30 C21         2.2665  -12.2307   -6.7031 C.ar      1 <0>        -0.0844
     31 C22         1.8719  -12.9334   -5.5800 C.ar      1 <0>        -0.0856
     32 C23         1.8906  -14.3156   -5.5876 C.ar      1 <0>        -0.1216
     33 C24         2.3036  -14.9951   -6.7184 C.ar      1 <0>        -0.1145
     34 C25         2.6974  -14.2923   -7.8418 C.ar      1 <0>        -0.1211
     35 C26         2.6746  -12.9102   -7.8356 C.ar      1 <0>        -0.1115
     36 O6          1.1436  -10.2667   -5.9090 O.3       1 <0>        -0.5428
     37 H3          1.0039    1.9031    0.0027 H         1 <0>         0.0532
     38 H4         -0.5459    1.8868   -0.8726 H         1 <0>         0.0532
     39 H5         -0.5289    1.8773    0.9072 H         1 <0>         0.0533
     40 H6          0.5293   -0.3651    0.8851 H         1 <0>         0.0603
     41 H7         -1.0205   -0.3814    0.0098 H         1 <0>         0.0603
     42 H8          0.1910   -0.1364   -2.1398 H         1 <0>         0.0603
     43 H9          1.7408   -0.1202   -1.2645 H         1 <0>         0.0604
     44 H10         1.2661   -2.3884   -0.3821 H         1 <0>         0.0609
     45 H11        -0.2836   -2.4046   -1.2575 H         1 <0>         0.0609
     46 H12         0.9279   -2.1597   -3.4071 H         1 <0>         0.0603
     47 H13         2.4777   -2.1435   -2.5317 H         1 <0>         0.0604
     48 H14         2.0030   -4.4117   -1.6494 H         1 <0>         0.0621
     49 H15         0.4533   -4.4279   -2.5247 H         1 <0>         0.0621
     50 H16         1.6648   -4.1829   -4.6743 H         1 <0>         0.0615
     51 H17         3.2146   -4.1667   -3.7990 H         1 <0>         0.0617
     52 H18         2.7399   -6.4349   -2.9166 H         1 <0>         0.0701
     53 H19         1.1901   -6.4511   -3.7919 H         1 <0>         0.0703
     54 H20         2.4017   -6.2062   -5.9415 H         1 <0>         0.0928
     55 H21         3.9515   -6.1900   -5.0662 H         1 <0>         0.0943
     56 H22         3.9388   -8.2400   -6.8155 H         1 <0>         0.3993
     57 H23         4.8005  -11.7747   -6.8700 H         1 <0>         0.0955
     58 H24         4.5838  -10.3967   -7.9756 H         1 <0>         0.0388
     59 H25         5.9128   -9.0819   -6.4227 H         1 <0>         0.3512
     60 H26         6.8383  -10.6533   -8.2607 H         1 <0>         0.0681
     61 H27         6.8698  -12.6000   -6.4340 H         1 <0>         0.1350
     62 H28        10.7929  -11.7854   -7.3189 H         1 <0>         0.0658
     63 H29         9.3164  -10.4762   -8.7180 H         1 <0>         0.0771
     64 H30         8.4196   -9.2397   -6.0725 H         1 <0>         0.0836
     65 H31         8.5391   -7.6190   -7.8260 H         1 <0>         0.3924
     66 H32        11.3806   -9.3996   -8.1487 H         1 <0>         0.3848
     67 H33        10.8290  -11.3586   -4.9744 H         1 <0>         0.3785
     68 H34         9.8016  -14.0662   -6.7125 H         1 <0>         0.0558
     69 H35         9.7275  -13.4402   -5.0479 H         1 <0>         0.0554
     70 H36         8.1082  -15.1548   -5.4268 H         1 <0>         0.3850
     71 H37         1.5492  -12.4026   -4.6965 H         1 <0>         0.1293
     72 H38         1.5830  -14.8647   -4.7100 H         1 <0>         0.1229
     73 H39         2.3189  -16.0750   -6.7241 H         1 <0>         0.1217
     74 H40         3.0204  -14.8231   -8.7251 H         1 <0>         0.1227
     75 H41         2.9787  -12.3611   -8.7146 H         1 <0>         0.1196
     76 H42         1.0684   -9.3039   -5.8593 H         1 <0>         0.3749
@<TRIPOS>BOND
     1    1    2 1
     2    1   37 1
     3    1   38 1
     4    1   39 1
     5    2    3 1
     6    2   40 1
     7    2   41 1
     8    3    4 1
     9    3   42 1
    10    3   43 1
    11    4    5 1
    12    4   44 1
    13    4   45 1
    14    5    6 1
    15    5   46 1
    16    5   47 1
    17    6    7 1
    18    6   48 1
    19    6   49 1
    20    7    8 1
    21    7   50 1
    22    7   51 1
    23    8    9 1
    24    8   52 1
    25    8   53 1
    26    9   10 1
    27    9   54 1
    28    9   55 1
    29   10   11 2
    30   10   12 am
    31   12   13 1
    32   12   56 1
    33   13   14 1
    34   13   15 1
    35   13   28 1
    36   15   16 1
    37   15   57 1
    38   15   58 1
    39   16   17 1
    40   16   59 1
    41   17   22 1
    42   17   18 1
    43   17   60 1
    44   18   19 2
    45   18   61 1
    46   19   20 1
    47   19   26 1
    48   20   21 1
    49   20   25 1
    50   20   62 1
    51   21   22 1
    52   21   24 1
    53   21   63 1
    54   22   23 1
    55   22   64 1
    56   23   65 1
    57   24   66 1
    58   25   67 1
    59   26   27 1
    60   26   68 1
    61   26   69 1
    62   27   70 1
    63   28   29 1
    64   28   30 1
    65   28   36 1
    66   30   35 ar
    67   30   31 ar
    68   31   32 ar
    69   31   71 1
    70   32   33 ar
    71   32   72 1
    72   33   34 ar
    73   33   73 1
    74   34   35 ar
    75   34   74 1
    76   35   75 1
    77   36   76 1
@<TRIPOS>MOLECULE
CHEMBL60801__16
   77    78     0     0     0
SMALL
USER_CHARGES

@<TRIPOS>ATOM
      1 C1         -0.0187    1.5258    0.0104 C.3       1 <0>        -0.1550
      2 C2          0.0021   -0.0041    0.0020 C.3       1 <0>        -0.1264
      3 C3         -1.4333   -0.5336    0.0129 C.3       1 <0>        -0.1210
      4 C4         -1.4126   -2.0635    0.0045 C.3       1 <0>        -0.1218
      5 C5         -2.8479   -2.5931    0.0153 C.3       1 <0>        -0.1200
      6 C6         -2.8272   -4.1229    0.0069 C.3       1 <0>        -0.1201
      7 C7         -4.2626   -4.6525    0.0178 C.3       1 <0>        -0.1197
      8 C8         -4.2418   -6.1823    0.0094 C.3       1 <0>        -0.1042
      9 C9         -5.6772   -6.7119    0.0202 C.3       1 <0>        -0.1396
     10 C10        -5.6568   -8.2187    0.0119 C.2       1 <0>         0.5159
     11 O1         -4.5984   -8.8108   -0.0014 O.2       1 <0>        -0.4891
     12 N1         -6.8147   -8.9084    0.0193 N.am      1 <0>        -0.7599
     13 C11        -6.7948  -10.3733    0.0112 C.3       1 <0>         0.0941
     14 H1         -5.9538  -10.7220   -0.5882 H         1 <0>         0.1242
     15 C12        -8.1009  -10.8977   -0.5888 C.3       1 <0>        -0.0192
     16 N2         -8.3005  -10.3073   -1.9190 N.4       1 <0>        -0.4991
     17 C13        -9.5545  -10.8109   -2.4951 C.3       1 <0>         0.0790
     18 C14       -10.7093  -10.3434   -1.6585 C.2       1 <0>        -0.1921
     19 C15       -11.8207   -9.8914   -2.1442 C.2       1 <0>        -0.0878
     20 C16       -12.1057   -9.7616   -3.6118 C.3       1 <0>         0.0969
     21 C17       -11.1174  -10.6077   -4.4175 C.3       1 <0>         0.0949
     22 C18        -9.6982  -10.2934   -3.9280 C.3       1 <0>         0.0963
     23 O2         -8.7444  -10.9426   -4.7711 O.3       1 <0>        -0.5627
     24 O3        -11.2292  -10.2855   -5.8052 O.3       1 <0>        -0.5442
     25 O4        -11.9821   -8.3917   -3.9991 O.3       1 <0>        -0.5384
     26 C19       -12.8950   -9.4686   -1.1756 C.3       1 <0>         0.0961
     27 O5        -12.4347   -9.6670    0.1626 O.3       1 <0>        -0.5734
     28 C20        -6.6485  -10.8892    1.4442 C.3       1 <0>         0.1462
     29 H2         -6.5445  -11.9742    1.4308 H         1 <0>         0.1252
     30 C21        -5.4263  -10.2752    2.0768 C.ar      1 <0>        -0.1141
     31 C22        -5.5095   -9.0337    2.6790 C.ar      1 <0>        -0.1115
     32 C23        -4.3884   -8.4704    3.2593 C.ar      1 <0>        -0.1112
     33 C24        -3.1842   -9.1488    3.2378 C.ar      1 <0>        -0.1042
     34 C25        -3.1012  -10.3907    2.6364 C.ar      1 <0>        -0.1056
     35 C26        -4.2233  -10.9559    2.0599 C.ar      1 <0>        -0.0921
     36 O6         -7.8071  -10.5310    2.2001 O.3       1 <0>        -0.5445
     37 H3          1.0039    1.9031    0.0027 H         1 <0>         0.0549
     38 H4         -0.5459    1.8868   -0.8726 H         1 <0>         0.0535
     39 H5         -0.5289    1.8773    0.9072 H         1 <0>         0.0536
     40 H6          0.5123   -0.3556   -0.8948 H         1 <0>         0.0605
     41 H7          0.5293   -0.3651    0.8851 H         1 <0>         0.0607
     42 H8         -1.9435   -0.1821    0.9097 H         1 <0>         0.0607
     43 H9         -1.9605   -0.1726   -0.8702 H         1 <0>         0.0604
     44 H10        -0.9024   -2.4150   -0.8923 H         1 <0>         0.0610
     45 H11        -0.8854   -2.4246    0.8875 H         1 <0>         0.0613
     46 H12        -3.3581   -2.2415    0.9121 H         1 <0>         0.0609
     47 H13        -3.3751   -2.2320   -0.8677 H         1 <0>         0.0604
     48 H14        -2.3170   -4.4744   -0.8899 H         1 <0>         0.0619
     49 H15        -2.3000   -4.4840    0.8900 H         1 <0>         0.0626
     50 H16        -4.7728   -4.3010    0.9146 H         1 <0>         0.0625
     51 H17        -4.7898   -4.2914   -0.8653 H         1 <0>         0.0613
     52 H18        -3.7316   -6.5338   -0.8874 H         1 <0>         0.0693
     53 H19        -3.7146   -6.5434    0.8924 H         1 <0>         0.0730
     54 H20        -6.1874   -6.3604    0.9170 H         1 <0>         0.0963
     55 H21        -6.2044   -6.3508   -0.8628 H         1 <0>         0.0928
     56 H22        -7.6612   -8.4349    0.0299 H         1 <0>         0.3993
     57 H23        -8.0503  -11.9830   -0.6768 H         1 <0>         0.1522
     58 H24        -8.9339  -10.6242    0.0588 H         1 <0>         0.1502
     59 H25        -8.3473   -9.3027   -1.8375 H         1 <0>         0.4230
     60 H26        -9.5357  -11.9007   -2.5047 H         1 <0>         0.1586
     61 H27       -10.6068  -10.3873   -0.5842 H         1 <0>         0.1600
     62 H28       -13.1213  -10.1019   -3.8141 H         1 <0>         0.0876
     63 H29       -11.3317  -11.6655   -4.2654 H         1 <0>         0.0909
     64 H30        -9.5347   -9.2159   -3.9465 H         1 <0>         0.0954
     65 H31        -8.7804  -10.6608   -5.6954 H         1 <0>         0.4158
     66 H32       -12.1077  -10.4449   -6.1765 H         1 <0>         0.3998
     67 H33       -12.5870   -7.7960   -3.5361 H         1 <0>         0.3886
     68 H34       -13.1268   -8.4144   -1.3276 H         1 <0>         0.0742
     69 H35       -13.7913  -10.0656   -1.3439 H         1 <0>         0.0766
     70 H36       -13.0766   -9.4154    0.8407 H         1 <0>         0.4002
     71 H37        -6.4504   -8.5036    2.6958 H         1 <0>         0.1092
     72 H38        -4.4533   -7.5002    3.7292 H         1 <0>         0.1207
     73 H39        -2.3082   -8.7085    3.6906 H         1 <0>         0.1229
     74 H40        -2.1603  -10.9206    2.6193 H         1 <0>         0.1235
     75 H41        -4.1593  -11.9278    1.5933 H         1 <0>         0.1185
     76 H42        -7.9621   -9.5781    2.2544 H         1 <0>         0.3753
     77 H43        -7.5294  -10.5605   -2.5185 H         1 <0>         0.4379
@<TRIPOS>BOND
     1    1    2 1
     2    1   37 1
     3    1   38 1
     4    1   39 1
     5    2    3 1
     6    2   40 1
     7    2   41 1
     8    3    4 1
     9    3   42 1
    10    3   43 1
    11    4    5 1
    12    4   44 1
    13    4   45 1
    14    5    6 1
    15    5   46 1
    16    5   47 1
    17    6    7 1
    18    6   48 1
    19    6   49 1
    20    7    8 1
    21    7   50 1
    22    7   51 1
    23    8    9 1
    24    8   52 1
    25    8   53 1
    26    9   10 1
    27    9   54 1
    28    9   55 1
    29   10   11 2
    30   10   12 am
    31   12   13 1
    32   12   56 1
    33   13   14 1
    34   13   15 1
    35   13   28 1
    36   15   16 1
    37   15   57 1
    38   15   58 1
    39   16   17 1
    40   16   59 1
    41   16   77 1
    42   17   22 1
    43   17   18 1
    44   17   60 1
    45   18   19 2
    46   18   61 1
    47   19   20 1
    48   19   26 1
    49   20   21 1
    50   20   25 1
    51   20   62 1
    52   21   22 1
    53   21   24 1
    54   21   63 1
    55   22   23 1
    56   22   64 1
    57   23   65 1
    58   24   66 1
    59   25   67 1
    60   26   27 1
    61   26   68 1
    62   26   69 1
    63   27   70 1
    64   28   29 1
    65   28   30 1
    66   28   36 1
    67   30   35 ar
    68   30   31 ar
    69   31   32 ar
    70   31   71 1
    71   32   33 ar
    72   32   72 1
    73   33   34 ar
    74   33   73 1
    75   34   35 ar
    76   34   74 1
    77   35   75 1
    78   36   76 1
@<TRIPOS>MOLECULE
CHEMBL60801__17
   76    77     0     0     0
SMALL
USER_CHARGES

@<TRIPOS>ATOM
      1 C1         -0.0187    1.5258    0.0104 C.3       1 <0>        -0.1542
      2 C2          0.0021   -0.0041    0.0020 C.3       1 <0>        -0.1264
      3 C3          0.7182   -0.4975   -1.2568 C.3       1 <0>        -0.1209
      4 C4          0.7390   -2.0273   -1.2652 C.3       1 <0>        -0.1218
      5 C5          1.4551   -2.5207   -2.5240 C.3       1 <0>        -0.1198
      6 C6          1.4758   -4.0506   -2.5324 C.3       1 <0>        -0.1206
      7 C7          2.1920   -4.5440   -3.7912 C.3       1 <0>        -0.1197
      8 C8          2.2127   -6.0738   -3.7996 C.3       1 <0>        -0.1049
      9 C9          2.9289   -6.5673   -5.0584 C.3       1 <0>        -0.1416
     10 C10         2.9493   -8.0741   -5.0667 C.2       1 <0>         0.5064
     11 O1          2.4411   -8.6925   -4.1555 O.2       1 <0>        -0.5161
     12 N1          3.5323   -8.7345   -6.0867 N.am      1 <0>        -0.7339
     13 C11         3.5522  -10.1994   -6.0948 C.3       1 <0>         0.1211
     14 H1          3.6564  -10.5669   -5.0739 H         1 <0>         0.1090
     15 C12         4.7327  -10.6888   -6.9361 C.3       1 <0>         0.0533
     16 N2          5.9753  -10.0889   -6.4321 N.3       1 <0>        -0.6610
     17 C13         7.1327  -10.5372   -7.2177 C.3       1 <0>         0.1229
     18 C14         7.2684   -9.6762   -8.4393 C.2       1 <0>        -0.1397
     19 C15         8.3950   -9.2174   -8.8817 C.2       1 <0>        -0.1667
     20 C16         9.7218   -9.4735   -8.2288 C.3       1 <0>         0.1165
     21 C17         9.6153  -10.6577   -7.2655 C.3       1 <0>         0.0831
     22 C18         8.3965  -10.4388   -6.3604 C.3       1 <0>         0.1355
     23 O2          8.3666  -11.4424   -5.3436 O.3       1 <0>        -0.5476
     24 O3         10.7982  -10.7358   -6.4676 O.3       1 <0>        -0.5491
     25 O4         10.1264   -8.3094   -7.5055 O.3       1 <0>        -0.5420
     26 C19         8.3729   -8.3730  -10.1297 C.3       1 <0>         0.1090
     27 O5          7.0278   -8.2460  -10.5951 O.3       1 <0>        -0.5700
     28 C20         2.2461  -10.7238   -6.6948 C.3       1 <0>         0.1408
     29 H2          2.1419  -10.3563   -7.7156 H         1 <0>         0.0616
     30 C21         2.2665  -12.2307   -6.7031 C.ar      1 <0>        -0.0849
     31 C22         1.8719  -12.9334   -5.5800 C.ar      1 <0>        -0.0852
     32 C23         1.8906  -14.3156   -5.5876 C.ar      1 <0>        -0.1215
     33 C24         2.3036  -14.9951   -6.7184 C.ar      1 <0>        -0.1148
     34 C25         2.6974  -14.2923   -7.8418 C.ar      1 <0>        -0.1222
     35 C26         2.6746  -12.9102   -7.8356 C.ar      1 <0>        -0.1118
     36 O6          1.1436  -10.2667   -5.9090 O.3       1 <0>        -0.5427
     37 H3          1.0039    1.9031    0.0027 H         1 <0>         0.0531
     38 H4         -0.5459    1.8868   -0.8726 H         1 <0>         0.0531
     39 H5         -0.5289    1.8773    0.9072 H         1 <0>         0.0534
     40 H6          0.5293   -0.3651    0.8851 H         1 <0>         0.0605
     41 H7         -1.0205   -0.3814    0.0098 H         1 <0>         0.0604
     42 H8          0.1910   -0.1364   -2.1398 H         1 <0>         0.0602
     43 H9          1.7408   -0.1202   -1.2645 H         1 <0>         0.0603
     44 H10         1.2661   -2.3884   -0.3821 H         1 <0>         0.0610
     45 H11        -0.2836   -2.4046   -1.2575 H         1 <0>         0.0610
     46 H12         0.9279   -2.1597   -3.4071 H         1 <0>         0.0601
     47 H13         2.4777   -2.1435   -2.5317 H         1 <0>         0.0602
     48 H14         2.0030   -4.4117   -1.6494 H         1 <0>         0.0623
     49 H15         0.4533   -4.4279   -2.5247 H         1 <0>         0.0623
     50 H16         1.6648   -4.1829   -4.6743 H         1 <0>         0.0612
     51 H17         3.2146   -4.1667   -3.7990 H         1 <0>         0.0614
     52 H18         2.7399   -6.4349   -2.9166 H         1 <0>         0.0706
     53 H19         1.1901   -6.4511   -3.7919 H         1 <0>         0.0706
     54 H20         2.4017   -6.2062   -5.9415 H         1 <0>         0.0923
     55 H21         3.9515   -6.1900   -5.0662 H         1 <0>         0.0934
     56 H22         3.9388   -8.2400   -6.8155 H         1 <0>         0.3975
     57 H23         4.8005  -11.7747   -6.8700 H         1 <0>         0.0964
     58 H24         4.5838  -10.3967   -7.9756 H         1 <0>         0.0380
     59 H25         5.9128   -9.0819   -6.4227 H         1 <0>         0.3415
     60 H26         6.9830  -11.5729   -7.5229 H         1 <0>         0.1005
     61 H27         6.3702   -9.4240   -8.9833 H         1 <0>         0.1317
     62 H28        10.4643   -9.6967   -8.9949 H         1 <0>         0.0668
     63 H29         9.4901  -11.5806   -7.8318 H         1 <0>         0.0773
     64 H30         8.4529   -9.4510   -5.9030 H         1 <0>         0.0719
     65 H31         9.1396  -11.4368   -4.7626 H         1 <0>         0.3845
     66 H32        11.6100  -10.8578   -6.9786 H         1 <0>         0.3832
     67 H33        10.2253   -7.5197   -8.0547 H         1 <0>         0.3771
     68 H34         8.7751   -7.3847   -9.9069 H         1 <0>         0.0576
     69 H35         8.9808   -8.8473  -10.9001 H         1 <0>         0.0594
     70 H36         6.9379   -7.7138  -11.3975 H         1 <0>         0.3867
     71 H37         1.5492  -12.4026   -4.6965 H         1 <0>         0.1296
     72 H38         1.5830  -14.8647   -4.7100 H         1 <0>         0.1235
     73 H39         2.3189  -16.0750   -6.7241 H         1 <0>         0.1222
     74 H40         3.0204  -14.8231   -8.7251 H         1 <0>         0.1229
     75 H41         2.9787  -12.3611   -8.7146 H         1 <0>         0.1197
     76 H42         1.0684   -9.3039   -5.8593 H         1 <0>         0.3745
@<TRIPOS>BOND
     1    1    2 1
     2    1   37 1
     3    1   38 1
     4    1   39 1
     5    2    3 1
     6    2   40 1
     7    2   41 1
     8    3    4 1
     9    3   42 1
    10    3   43 1
    11    4    5 1
    12    4   44 1
    13    4   45 1
    14    5    6 1
    15    5   46 1
    16    5   47 1
    17    6    7 1
    18    6   48 1
    19    6   49 1
    20    7    8 1
    21    7   50 1
    22    7   51 1
    23    8    9 1
    24    8   52 1
    25    8   53 1
    26    9   10 1
    27    9   54 1
    28    9   55 1
    29   10   11 2
    30   10   12 am
    31   12   13 1
    32   12   56 1
    33   13   14 1
    34   13   15 1
    35   13   28 1
    36   15   16 1
    37   15   57 1
    38   15   58 1
    39   16   17 1
    40   16   59 1
    41   17   22 1
    42   17   18 1
    43   17   60 1
    44   18   19 2
    45   18   61 1
    46   19   20 1
    47   19   26 1
    48   20   21 1
    49   20   25 1
    50   20   62 1
    51   21   22 1
    52   21   24 1
    53   21   63 1
    54   22   23 1
    55   22   64 1
    56   23   65 1
    57   24   66 1
    58   25   67 1
    59   26   27 1
    60   26   68 1
    61   26   69 1
    62   27   70 1
    63   28   29 1
    64   28   30 1
    65   28   36 1
    66   30   35 ar
    67   30   31 ar
    68   31   32 ar
    69   31   71 1
    70   32   33 ar
    71   32   72 1
    72   33   34 ar
    73   33   73 1
    74   34   35 ar
    75   34   74 1
    76   35   75 1
    77   36   76 1
@<TRIPOS>MOLECULE
CHEMBL60801__18
   77    78     0     0     0
SMALL
USER_CHARGES

@<TRIPOS>ATOM
      1 C1         -0.0187    1.5258    0.0104 C.3       1 <0>        -0.1550
      2 C2          0.0021   -0.0041    0.0020 C.3       1 <0>        -0.1264
      3 C3         -1.4333   -0.5336    0.0129 C.3       1 <0>        -0.1211
      4 C4         -1.4126   -2.0635    0.0045 C.3       1 <0>        -0.1217
      5 C5         -2.8479   -2.5931    0.0153 C.3       1 <0>        -0.1200
      6 C6         -2.8272   -4.1229    0.0069 C.3       1 <0>        -0.1199
      7 C7         -4.2626   -4.6525    0.0178 C.3       1 <0>        -0.1198
      8 C8         -4.2418   -6.1823    0.0094 C.3       1 <0>        -0.1037
      9 C9         -5.6772   -6.7119    0.0202 C.3       1 <0>        -0.1398
     10 C10        -5.6568   -8.2187    0.0119 C.2       1 <0>         0.5172
     11 O1         -4.5984   -8.8108   -0.0014 O.2       1 <0>        -0.4913
     12 N1         -6.8147   -8.9084    0.0193 N.am      1 <0>        -0.7587
     13 C11        -6.7948  -10.3733    0.0112 C.3       1 <0>         0.0946
     14 H1         -5.9538  -10.7220   -0.5882 H         1 <0>         0.1231
     15 C12        -8.1009  -10.8977   -0.5888 C.3       1 <0>        -0.0206
     16 N2         -8.3005  -10.3073   -1.9190 N.4       1 <0>        -0.4961
     17 C13        -9.5545  -10.8109   -2.4951 C.3       1 <0>         0.0811
     18 C14       -10.7093  -10.3434   -1.6585 C.2       1 <0>        -0.1915
     19 C15       -11.8207   -9.8914   -2.1442 C.2       1 <0>        -0.0811
     20 C16       -12.1057   -9.7616   -3.6118 C.3       1 <0>         0.1071
     21 C17       -11.1174  -10.6077   -4.4175 C.3       1 <0>         0.0889
     22 C18        -9.6982  -10.2934   -3.9280 C.3       1 <0>         0.0951
     23 O2         -9.4839   -8.8808   -3.9523 O.3       1 <0>        -0.5532
     24 O3        -11.2292  -10.2855   -5.8052 O.3       1 <0>        -0.5450
     25 O4        -11.9821   -8.3917   -3.9991 O.3       1 <0>        -0.5285
     26 C19       -12.8950   -9.4686   -1.1756 C.3       1 <0>         0.0963
     27 O5        -12.4347   -9.6670    0.1626 O.3       1 <0>        -0.5734
     28 C20        -6.6485  -10.8892    1.4442 C.3       1 <0>         0.1460
     29 H2         -6.5445  -11.9742    1.4308 H         1 <0>         0.1247
     30 C21        -5.4263  -10.2752    2.0768 C.ar      1 <0>        -0.1138
     31 C22        -5.5095   -9.0337    2.6790 C.ar      1 <0>        -0.1112
     32 C23        -4.3884   -8.4704    3.2593 C.ar      1 <0>        -0.1109
     33 C24        -3.1842   -9.1488    3.2378 C.ar      1 <0>        -0.1043
     34 C25        -3.1012  -10.3907    2.6364 C.ar      1 <0>        -0.1058
     35 C26        -4.2233  -10.9559    2.0599 C.ar      1 <0>        -0.0924
     36 O6         -7.8071  -10.5310    2.2001 O.3       1 <0>        -0.5447
     37 H3          1.0039    1.9031    0.0027 H         1 <0>         0.0548
     38 H4         -0.5459    1.8868   -0.8726 H         1 <0>         0.0535
     39 H5         -0.5289    1.8773    0.9072 H         1 <0>         0.0536
     40 H6          0.5123   -0.3556   -0.8948 H         1 <0>         0.0605
     41 H7          0.5293   -0.3651    0.8851 H         1 <0>         0.0606
     42 H8         -1.9435   -0.1821    0.9097 H         1 <0>         0.0607
     43 H9         -1.9605   -0.1726   -0.8702 H         1 <0>         0.0605
     44 H10        -0.9024   -2.4150   -0.8923 H         1 <0>         0.0609
     45 H11        -0.8854   -2.4246    0.8875 H         1 <0>         0.0612
     46 H12        -3.3581   -2.2415    0.9121 H         1 <0>         0.0609
     47 H13        -3.3751   -2.2320   -0.8677 H         1 <0>         0.0605
     48 H14        -2.3170   -4.4744   -0.8899 H         1 <0>         0.0618
     49 H15        -2.3000   -4.4840    0.8900 H         1 <0>         0.0624
     50 H16        -4.7728   -4.3010    0.9146 H         1 <0>         0.0625
     51 H17        -4.7898   -4.2914   -0.8653 H         1 <0>         0.0616
     52 H18        -3.7316   -6.5338   -0.8874 H         1 <0>         0.0689
     53 H19        -3.7146   -6.5434    0.8924 H         1 <0>         0.0725
     54 H20        -6.1874   -6.3604    0.9170 H         1 <0>         0.0958
     55 H21        -6.2044   -6.3508   -0.8628 H         1 <0>         0.0937
     56 H22        -7.6612   -8.4349    0.0299 H         1 <0>         0.4003
     57 H23        -8.0503  -11.9830   -0.6768 H         1 <0>         0.1507
     58 H24        -8.9339  -10.6242    0.0588 H         1 <0>         0.1498
     59 H25        -8.3473   -9.3027   -1.8375 H         1 <0>         0.4335
     60 H26        -9.5357  -11.9007   -2.5047 H         1 <0>         0.1582
     61 H27       -10.6068  -10.3873   -0.5842 H         1 <0>         0.1529
     62 H28       -13.1213  -10.1019   -3.8141 H         1 <0>         0.0789
     63 H29       -11.3317  -11.6655   -4.2654 H         1 <0>         0.0886
     64 H30        -8.9707  -10.7886   -4.5711 H         1 <0>         0.0944
     65 H31        -9.5603   -8.4865   -4.8319 H         1 <0>         0.4150
     66 H32       -12.1077  -10.4449   -6.1765 H         1 <0>         0.3984
     67 H33       -12.5870   -7.7960   -3.5361 H         1 <0>         0.3837
     68 H34       -13.1268   -8.4144   -1.3276 H         1 <0>         0.0725
     69 H35       -13.7913  -10.0656   -1.3439 H         1 <0>         0.0737
     70 H36       -13.0766   -9.4154    0.8407 H         1 <0>         0.3987
     71 H37        -6.4504   -8.5036    2.6958 H         1 <0>         0.1093
     72 H38        -4.4533   -7.5002    3.7292 H         1 <0>         0.1208
     73 H39        -2.3082   -8.7085    3.6906 H         1 <0>         0.1229
     74 H40        -2.1603  -10.9206    2.6193 H         1 <0>         0.1233
     75 H41        -4.1593  -11.9278    1.5933 H         1 <0>         0.1181
     76 H42        -7.9621   -9.5781    2.2544 H         1 <0>         0.3757
     77 H43        -7.5294  -10.5605   -2.5185 H         1 <0>         0.4298
@<TRIPOS>BOND
     1    1    2 1
     2    1   37 1
     3    1   38 1
     4    1   39 1
     5    2    3 1
     6    2   40 1
     7    2   41 1
     8    3    4 1
     9    3   42 1
    10    3   43 1
    11    4    5 1
    12    4   44 1
    13    4   45 1
    14    5    6 1
    15    5   46 1
    16    5   47 1
    17    6    7 1
    18    6   48 1
    19    6   49 1
    20    7    8 1
    21    7   50 1
    22    7   51 1
    23    8    9 1
    24    8   52 1
    25    8   53 1
    26    9   10 1
    27    9   54 1
    28    9   55 1
    29   10   11 2
    30   10   12 am
    31   12   13 1
    32   12   56 1
    33   13   14 1
    34   13   15 1
    35   13   28 1
    36   15   16 1
    37   15   57 1
    38   15   58 1
    39   16   17 1
    40   16   59 1
    41   16   77 1
    42   17   22 1
    43   17   18 1
    44   17   60 1
    45   18   19 2
    46   18   61 1
    47   19   20 1
    48   19   26 1
    49   20   21 1
    50   20   25 1
    51   20   62 1
    52   21   22 1
    53   21   24 1
    54   21   63 1
    55   22   23 1
    56   22   64 1
    57   23   65 1
    58   24   66 1
    59   25   67 1
    60   26   27 1
    61   26   68 1
    62   26   69 1
    63   27   70 1
    64   28   29 1
    65   28   30 1
    66   28   36 1
    67   30   35 ar
    68   30   31 ar
    69   31   32 ar
    70   31   71 1
    71   32   33 ar
    72   32   72 1
    73   33   34 ar
    74   33   73 1
    75   34   35 ar
    76   34   74 1
    77   35   75 1
    78   36   76 1
@<TRIPOS>MOLECULE
CHEMBL60801__19
   76    77     0     0     0
SMALL
USER_CHARGES

@<TRIPOS>ATOM
      1 C1         -0.0187    1.5258    0.0104 C.3       1 <0>        -0.1541
      2 C2          0.0021   -0.0041    0.0020 C.3       1 <0>        -0.1264
      3 C3          0.7182   -0.4975   -1.2568 C.3       1 <0>        -0.1209
      4 C4          0.7390   -2.0273   -1.2652 C.3       1 <0>        -0.1217
      5 C5          1.4551   -2.5207   -2.5240 C.3       1 <0>        -0.1199
      6 C6          1.4758   -4.0506   -2.5324 C.3       1 <0>        -0.1205
      7 C7          2.1920   -4.5440   -3.7912 C.3       1 <0>        -0.1199
      8 C8          2.2127   -6.0738   -3.7996 C.3       1 <0>        -0.1044
      9 C9          2.9289   -6.5673   -5.0584 C.3       1 <0>        -0.1419
     10 C10         2.9493   -8.0741   -5.0667 C.2       1 <0>         0.5077
     11 O1          2.4411   -8.6925   -4.1555 O.2       1 <0>        -0.5178
     12 N1          3.5323   -8.7345   -6.0867 N.am      1 <0>        -0.7329
     13 C11         3.5522  -10.1994   -6.0948 C.3       1 <0>         0.1220
     14 H1          3.6564  -10.5669   -5.0739 H         1 <0>         0.1078
     15 C12         4.7327  -10.6888   -6.9361 C.3       1 <0>         0.0488
     16 N2          5.9753  -10.0889   -6.4321 N.3       1 <0>        -0.6603
     17 C13         7.1327  -10.5372   -7.2177 C.3       1 <0>         0.1249
     18 C14         7.2684   -9.6762   -8.4393 C.2       1 <0>        -0.1388
     19 C15         8.3950   -9.2174   -8.8817 C.2       1 <0>        -0.1604
     20 C16         9.7218   -9.4735   -8.2288 C.3       1 <0>         0.1266
     21 C17         9.6153  -10.6577   -7.2655 C.3       1 <0>         0.0773
     22 C18         8.3965  -10.4388   -6.3604 C.3       1 <0>         0.1338
     23 O2          8.4704   -9.1438   -5.7607 O.3       1 <0>        -0.5360
     24 O3         10.7982  -10.7358   -6.4676 O.3       1 <0>        -0.5501
     25 O4         10.1264   -8.3094   -7.5055 O.3       1 <0>        -0.5314
     26 C19         8.3729   -8.3730  -10.1297 C.3       1 <0>         0.1092
     27 O5          7.0278   -8.2460  -10.5951 O.3       1 <0>        -0.5700
     28 C20         2.2461  -10.7238   -6.6948 C.3       1 <0>         0.1401
     29 H2          2.1419  -10.3563   -7.7156 H         1 <0>         0.0617
     30 C21         2.2665  -12.2307   -6.7031 C.ar      1 <0>        -0.0842
     31 C22         1.8719  -12.9334   -5.5800 C.ar      1 <0>        -0.0856
     32 C23         1.8906  -14.3156   -5.5876 C.ar      1 <0>        -0.1218
     33 C24         2.3036  -14.9951   -6.7184 C.ar      1 <0>        -0.1154
     34 C25         2.6974  -14.2923   -7.8418 C.ar      1 <0>        -0.1225
     35 C26         2.6746  -12.9102   -7.8356 C.ar      1 <0>        -0.1119
     36 O6          1.1436  -10.2667   -5.9090 O.3       1 <0>        -0.5431
     37 H3          1.0039    1.9031    0.0027 H         1 <0>         0.0532
     38 H4         -0.5459    1.8868   -0.8726 H         1 <0>         0.0531
     39 H5         -0.5289    1.8773    0.9072 H         1 <0>         0.0533
     40 H6          0.5293   -0.3651    0.8851 H         1 <0>         0.0604
     41 H7         -1.0205   -0.3814    0.0098 H         1 <0>         0.0603
     42 H8          0.1910   -0.1364   -2.1398 H         1 <0>         0.0602
     43 H9          1.7408   -0.1202   -1.2645 H         1 <0>         0.0603
     44 H10         1.2661   -2.3884   -0.3821 H         1 <0>         0.0610
     45 H11        -0.2836   -2.4046   -1.2575 H         1 <0>         0.0608
     46 H12         0.9279   -2.1597   -3.4071 H         1 <0>         0.0601
     47 H13         2.4777   -2.1435   -2.5317 H         1 <0>         0.0604
     48 H14         2.0030   -4.4117   -1.6494 H         1 <0>         0.0623
     49 H15         0.4533   -4.4279   -2.5247 H         1 <0>         0.0621
     50 H16         1.6648   -4.1829   -4.6743 H         1 <0>         0.0611
     51 H17         3.2146   -4.1667   -3.7990 H         1 <0>         0.0617
     52 H18         2.7399   -6.4349   -2.9166 H         1 <0>         0.0704
     53 H19         1.1901   -6.4511   -3.7919 H         1 <0>         0.0701
     54 H20         2.4017   -6.2062   -5.9415 H         1 <0>         0.0920
     55 H21         3.9515   -6.1900   -5.0662 H         1 <0>         0.0943
     56 H22         3.9388   -8.2400   -6.8155 H         1 <0>         0.3982
     57 H23         4.8005  -11.7747   -6.8700 H         1 <0>         0.0937
     58 H24         4.5838  -10.3967   -7.9756 H         1 <0>         0.0379
     59 H25         5.9128   -9.0819   -6.4227 H         1 <0>         0.3522
     60 H26         6.9830  -11.5729   -7.5229 H         1 <0>         0.0995
     61 H27         6.3702   -9.4240   -8.9833 H         1 <0>         0.1241
     62 H28        10.4643   -9.6967   -8.9949 H         1 <0>         0.0576
     63 H29         9.4901  -11.5806   -7.8318 H         1 <0>         0.0753
     64 H30         8.3737  -11.2043   -5.5848 H         1 <0>         0.0688
     65 H31         9.2491   -9.0127   -5.2025 H         1 <0>         0.3828
     66 H32        11.6100  -10.8578   -6.9786 H         1 <0>         0.3819
     67 H33        10.2253   -7.5197   -8.0547 H         1 <0>         0.3719
     68 H34         8.7751   -7.3847   -9.9069 H         1 <0>         0.0559
     69 H35         8.9808   -8.8473  -10.9001 H         1 <0>         0.0564
     70 H36         6.9379   -7.7138  -11.3975 H         1 <0>         0.3850
     71 H37         1.5492  -12.4026   -4.6965 H         1 <0>         0.1297
     72 H38         1.5830  -14.8647   -4.7100 H         1 <0>         0.1234
     73 H39         2.3189  -16.0750   -6.7241 H         1 <0>         0.1221
     74 H40         3.0204  -14.8231   -8.7251 H         1 <0>         0.1230
     75 H41         2.9787  -12.3611   -8.7146 H         1 <0>         0.1200
     76 H42         1.0684   -9.3039   -5.8593 H         1 <0>         0.3750
@<TRIPOS>BOND
     1    1    2 1
     2    1   37 1
     3    1   38 1
     4    1   39 1
     5    2    3 1
     6    2   40 1
     7    2   41 1
     8    3    4 1
     9    3   42 1
    10    3   43 1
    11    4    5 1
    12    4   44 1
    13    4   45 1
    14    5    6 1
    15    5   46 1
    16    5   47 1
    17    6    7 1
    18    6   48 1
    19    6   49 1
    20    7    8 1
    21    7   50 1
    22    7   51 1
    23    8    9 1
    24    8   52 1
    25    8   53 1
    26    9   10 1
    27    9   54 1
    28    9   55 1
    29   10   11 2
    30   10   12 am
    31   12   13 1
    32   12   56 1
    33   13   14 1
    34   13   15 1
    35   13   28 1
    36   15   16 1
    37   15   57 1
    38   15   58 1
    39   16   17 1
    40   16   59 1
    41   17   22 1
    42   17   18 1
    43   17   60 1
    44   18   19 2
    45   18   61 1
    46   19   20 1
    47   19   26 1
    48   20   21 1
    49   20   25 1
    50   20   62 1
    51   21   22 1
    52   21   24 1
    53   21   63 1
    54   22   23 1
    55   22   64 1
    56   23   65 1
    57   24   66 1
    58   25   67 1
    59   26   27 1
    60   26   68 1
    61   26   69 1
    62   27   70 1
    63   28   29 1
    64   28   30 1
    65   28   36 1
    66   30   35 ar
    67   30   31 ar
    68   31   32 ar
    69   31   71 1
    70   32   33 ar
    71   32   72 1
    72   33   34 ar
    73   33   73 1
    74   34   35 ar
    75   34   74 1
    76   35   75 1
    77   36   76 1
@<TRIPOS>MOLECULE
CHEMBL60801__20
   77    78     0     0     0
SMALL
USER_CHARGES

@<TRIPOS>ATOM
      1 C1         -0.0187    1.5258    0.0104 C.3       1 <0>        -0.1550
      2 C2          0.0021   -0.0041    0.0020 C.3       1 <0>        -0.1264
      3 C3         -1.4333   -0.5336    0.0129 C.3       1 <0>        -0.1210
      4 C4         -1.4126   -2.0635    0.0045 C.3       1 <0>        -0.1218
      5 C5         -2.8479   -2.5931    0.0153 C.3       1 <0>        -0.1200
      6 C6         -2.8272   -4.1229    0.0069 C.3       1 <0>        -0.1201
      7 C7         -4.2626   -4.6525    0.0178 C.3       1 <0>        -0.1197
      8 C8         -4.2418   -6.1823    0.0094 C.3       1 <0>        -0.1041
      9 C9         -5.6772   -6.7119    0.0202 C.3       1 <0>        -0.1398
     10 C10        -5.6568   -8.2187    0.0119 C.2       1 <0>         0.5157
     11 O1         -4.5984   -8.8108   -0.0014 O.2       1 <0>        -0.4885
     12 N1         -6.8147   -8.9084    0.0193 N.am      1 <0>        -0.7607
     13 C11        -6.7948  -10.3733    0.0112 C.3       1 <0>         0.0928
     14 H1         -5.9538  -10.7220   -0.5882 H         1 <0>         0.1246
     15 C12        -8.1009  -10.8977   -0.5888 C.3       1 <0>        -0.0155
     16 N2         -8.3005  -10.3073   -1.9190 N.4       1 <0>        -0.5029
     17 C13        -9.5545  -10.8109   -2.4951 C.3       1 <0>         0.0735
     18 C14       -10.7093  -10.3434   -1.6585 C.2       1 <0>        -0.1959
     19 C15       -11.4976   -9.3713   -1.9888 C.2       1 <0>        -0.0745
     20 C16       -11.3733   -8.5828   -3.2596 C.3       1 <0>         0.1008
     21 C17        -9.9869   -8.7880   -3.8737 C.3       1 <0>         0.0800
     22 C18        -9.6982  -10.2934   -3.9280 C.3       1 <0>         0.1012
     23 O2        -10.7797  -10.9665   -4.5756 O.3       1 <0>        -0.5365
     24 O3         -9.9622   -8.2463   -5.1958 O.3       1 <0>        -0.5483
     25 O4        -11.5656   -7.1953   -2.9768 O.3       1 <0>        -0.5557
     26 C19       -12.6096   -9.0092   -1.0384 C.3       1 <0>         0.0924
     27 O5        -12.5599   -9.8684    0.1024 O.3       1 <0>        -0.5694
     28 C20        -6.6485  -10.8892    1.4442 C.3       1 <0>         0.1464
     29 H2         -6.5445  -11.9742    1.4308 H         1 <0>         0.1258
     30 C21        -5.4263  -10.2752    2.0768 C.ar      1 <0>        -0.1144
     31 C22        -5.5095   -9.0337    2.6790 C.ar      1 <0>        -0.1116
     32 C23        -4.3884   -8.4704    3.2593 C.ar      1 <0>        -0.1111
     33 C24        -3.1842   -9.1488    3.2378 C.ar      1 <0>        -0.1039
     34 C25        -3.1012  -10.3907    2.6364 C.ar      1 <0>        -0.1056
     35 C26        -4.2233  -10.9559    2.0599 C.ar      1 <0>        -0.0920
     36 O6         -7.8071  -10.5310    2.2001 O.3       1 <0>        -0.5437
     37 H3          1.0039    1.9031    0.0027 H         1 <0>         0.0549
     38 H4         -0.5459    1.8868   -0.8726 H         1 <0>         0.0535
     39 H5         -0.5289    1.8773    0.9072 H         1 <0>         0.0537
     40 H6          0.5123   -0.3556   -0.8948 H         1 <0>         0.0605
     41 H7          0.5293   -0.3651    0.8851 H         1 <0>         0.0607
     42 H8         -1.9435   -0.1821    0.9097 H         1 <0>         0.0608
     43 H9         -1.9605   -0.1726   -0.8702 H         1 <0>         0.0604
     44 H10        -0.9024   -2.4150   -0.8923 H         1 <0>         0.0609
     45 H11        -0.8854   -2.4246    0.8875 H         1 <0>         0.0613
     46 H12        -3.3581   -2.2415    0.9121 H         1 <0>         0.0610
     47 H13        -3.3751   -2.2320   -0.8677 H         1 <0>         0.0604
     48 H14        -2.3170   -4.4744   -0.8899 H         1 <0>         0.0619
     49 H15        -2.3000   -4.4840    0.8900 H         1 <0>         0.0627
     50 H16        -4.7728   -4.3010    0.9146 H         1 <0>         0.0627
     51 H17        -4.7898   -4.2914   -0.8653 H         1 <0>         0.0612
     52 H18        -3.7316   -6.5338   -0.8874 H         1 <0>         0.0692
     53 H19        -3.7146   -6.5434    0.8924 H         1 <0>         0.0732
     54 H20        -6.1874   -6.3604    0.9170 H         1 <0>         0.0966
     55 H21        -6.2044   -6.3508   -0.8628 H         1 <0>         0.0924
     56 H22        -7.6612   -8.4349    0.0299 H         1 <0>         0.3990
     57 H23        -8.0503  -11.9830   -0.6768 H         1 <0>         0.1546
     58 H24        -8.9339  -10.6242    0.0588 H         1 <0>         0.1524
     59 H25        -8.3473   -9.3027   -1.8375 H         1 <0>         0.4201
     60 H26        -9.5357  -11.9007   -2.5047 H         1 <0>         0.1660
     61 H27       -10.8943  -10.8498   -0.7227 H         1 <0>         0.1583
     62 H28       -12.1342   -8.9142   -3.9662 H         1 <0>         0.1017
     63 H29        -9.2363   -8.2929   -3.2576 H         1 <0>         0.0654
     64 H30        -8.7724  -10.4696   -4.4758 H         1 <0>         0.0968
     65 H31       -10.9269  -10.6860   -5.4892 H         1 <0>         0.4107
     66 H32       -10.1533   -7.2992   -5.2365 H         1 <0>         0.4054
     67 H33       -12.4291   -6.9879   -2.5943 H         1 <0>         0.3945
     68 H34       -12.4917   -7.9738   -0.7188 H         1 <0>         0.0765
     69 H35       -13.5697   -9.1273   -1.5406 H         1 <0>         0.0756
     70 H36       -13.2485   -9.6920    0.7580 H         1 <0>         0.3996
     71 H37        -6.4504   -8.5036    2.6958 H         1 <0>         0.1091
     72 H38        -4.4533   -7.5002    3.7292 H         1 <0>         0.1208
     73 H39        -2.3082   -8.7085    3.6906 H         1 <0>         0.1230
     74 H40        -2.1603  -10.9206    2.6193 H         1 <0>         0.1236
     75 H41        -4.1593  -11.9278    1.5933 H         1 <0>         0.1186
     76 H42        -7.9621   -9.5781    2.2544 H         1 <0>         0.3752
     77 H43        -7.5294  -10.5605   -2.5185 H         1 <0>         0.4304
@<TRIPOS>BOND
     1    1    2 1
     2    1   37 1
     3    1   38 1
     4    1   39 1
     5    2    3 1
     6    2   40 1
     7    2   41 1
     8    3    4 1
     9    3   42 1
    10    3   43 1
    11    4    5 1
    12    4   44 1
    13    4   45 1
    14    5    6 1
    15    5   46 1
    16    5   47 1
    17    6    7 1
    18    6   48 1
    19    6   49 1
    20    7    8 1
    21    7   50 1
    22    7   51 1
    23    8    9 1
    24    8   52 1
    25    8   53 1
    26    9   10 1
    27    9   54 1
    28    9   55 1
    29   10   11 2
    30   10   12 am
    31   12   13 1
    32   12   56 1
    33   13   14 1
    34   13   15 1
    35   13   28 1
    36   15   16 1
    37   15   57 1
    38   15   58 1
    39   16   17 1
    40   16   59 1
    41   16   77 1
    42   17   22 1
    43   17   18 1
    44   17   60 1
    45   18   19 2
    46   18   61 1
    47   19   20 1
    48   19   26 1
    49   20   21 1
    50   20   25 1
    51   20   62 1
    52   21   22 1
    53   21   24 1
    54   21   63 1
    55   22   23 1
    56   22   64 1
    57   23   65 1
    58   24   66 1
    59   25   67 1
    60   26   27 1
    61   26   68 1
    62   26   69 1
    63   27   70 1
    64   28   29 1
    65   28   30 1
    66   28   36 1
    67   30   35 ar
    68   30   31 ar
    69   31   32 ar
    70   31   71 1
    71   32   33 ar
    72   32   72 1
    73   33   34 ar
    74   33   73 1
    75   34   35 ar
    76   34   74 1
    77   35   75 1
    78   36   76 1
@<TRIPOS>MOLECULE
CHEMBL60801__21
   76    77     0     0     0
SMALL
USER_CHARGES

@<TRIPOS>ATOM
      1 C1         -0.0187    1.5258    0.0104 C.3       1 <0>        -0.1542
      2 C2          0.0021   -0.0041    0.0020 C.3       1 <0>        -0.1264
      3 C3          0.7182   -0.4975   -1.2568 C.3       1 <0>        -0.1209
      4 C4          0.7390   -2.0273   -1.2652 C.3       1 <0>        -0.1218
      5 C5          1.4551   -2.5207   -2.5240 C.3       1 <0>        -0.1199
      6 C6          1.4758   -4.0506   -2.5324 C.3       1 <0>        -0.1205
      7 C7          2.1920   -4.5440   -3.7912 C.3       1 <0>        -0.1199
      8 C8          2.2127   -6.0738   -3.7996 C.3       1 <0>        -0.1047
      9 C9          2.9289   -6.5673   -5.0584 C.3       1 <0>        -0.1420
     10 C10         2.9493   -8.0741   -5.0667 C.2       1 <0>         0.5065
     11 O1          2.4411   -8.6925   -4.1555 O.2       1 <0>        -0.5158
     12 N1          3.5323   -8.7345   -6.0867 N.am      1 <0>        -0.7347
     13 C11         3.5522  -10.1994   -6.0948 C.3       1 <0>         0.1203
     14 H1          3.6564  -10.5669   -5.0739 H         1 <0>         0.1090
     15 C12         4.7327  -10.6888   -6.9361 C.3       1 <0>         0.0533
     16 N2          5.9753  -10.0889   -6.4321 N.3       1 <0>        -0.6686
     17 C13         7.1327  -10.5372   -7.2177 C.3       1 <0>         0.1238
     18 C14         7.2684   -9.6762   -8.4393 C.2       1 <0>        -0.1505
     19 C15         8.1435   -8.7310   -8.5668 C.2       1 <0>        -0.1479
     20 C16         9.1517   -8.3710   -7.5150 C.3       1 <0>         0.1178
     21 C17         8.7352   -8.9558   -6.1637 C.3       1 <0>         0.0883
     22 C18         8.3965  -10.4388   -6.3604 C.3       1 <0>         0.1275
     23 O2          9.4791  -11.0945   -7.0237 O.3       1 <0>        -0.5594
     24 O3          9.8119   -8.8285   -5.2328 O.3       1 <0>        -0.5609
     25 O4          9.2384   -6.9486   -7.4091 O.3       1 <0>        -0.5631
     26 C19         8.1508   -7.9433   -9.8515 C.3       1 <0>         0.1056
     27 O5          7.1253   -8.4344  -10.7171 O.3       1 <0>        -0.5679
     28 C20         2.2461  -10.7238   -6.6948 C.3       1 <0>         0.1408
     29 H2          2.1419  -10.3563   -7.7156 H         1 <0>         0.0624
     30 C21         2.2665  -12.2307   -6.7031 C.ar      1 <0>        -0.0859
     31 C22         1.8719  -12.9334   -5.5800 C.ar      1 <0>        -0.0858
     32 C23         1.8906  -14.3156   -5.5876 C.ar      1 <0>        -0.1219
     33 C24         2.3036  -14.9951   -6.7184 C.ar      1 <0>        -0.1146
     34 C25         2.6974  -14.2923   -7.8418 C.ar      1 <0>        -0.1217
     35 C26         2.6746  -12.9102   -7.8356 C.ar      1 <0>        -0.1116
     36 O6          1.1436  -10.2667   -5.9090 O.3       1 <0>        -0.5425
     37 H3          1.0039    1.9031    0.0027 H         1 <0>         0.0532
     38 H4         -0.5459    1.8868   -0.8726 H         1 <0>         0.0531
     39 H5         -0.5289    1.8773    0.9072 H         1 <0>         0.0534
     40 H6          0.5293   -0.3651    0.8851 H         1 <0>         0.0604
     41 H7         -1.0205   -0.3814    0.0098 H         1 <0>         0.0604
     42 H8          0.1910   -0.1364   -2.1398 H         1 <0>         0.0603
     43 H9          1.7408   -0.1202   -1.2645 H         1 <0>         0.0603
     44 H10         1.2661   -2.3884   -0.3821 H         1 <0>         0.0610
     45 H11        -0.2836   -2.4046   -1.2575 H         1 <0>         0.0610
     46 H12         0.9279   -2.1597   -3.4071 H         1 <0>         0.0602
     47 H13         2.4777   -2.1435   -2.5317 H         1 <0>         0.0603
     48 H14         2.0030   -4.4117   -1.6494 H         1 <0>         0.0623
     49 H15         0.4533   -4.4279   -2.5247 H         1 <0>         0.0624
     50 H16         1.6648   -4.1829   -4.6743 H         1 <0>         0.0614
     51 H17         3.2146   -4.1667   -3.7990 H         1 <0>         0.0614
     52 H18         2.7399   -6.4349   -2.9166 H         1 <0>         0.0704
     53 H19         1.1901   -6.4511   -3.7919 H         1 <0>         0.0707
     54 H20         2.4017   -6.2062   -5.9415 H         1 <0>         0.0927
     55 H21         3.9515   -6.1900   -5.0662 H         1 <0>         0.0934
     56 H22         3.9388   -8.2400   -6.8155 H         1 <0>         0.3980
     57 H23         4.8005  -11.7747   -6.8700 H         1 <0>         0.0979
     58 H24         4.5838  -10.3967   -7.9756 H         1 <0>         0.0430
     59 H25         5.9128   -9.0819   -6.4227 H         1 <0>         0.3434
     60 H26         6.9830  -11.5729   -7.5229 H         1 <0>         0.1044
     61 H27         6.5942   -9.8567   -9.2634 H         1 <0>         0.1271
     62 H28        10.1260   -8.7704   -7.7967 H         1 <0>         0.0804
     63 H29         7.8590   -8.4263   -5.7897 H         1 <0>         0.0747
     64 H30         8.2194  -10.9059   -5.3916 H         1 <0>         0.0842
     65 H31        10.3129  -11.0699   -6.5344 H         1 <0>         0.3885
     66 H32        10.0886   -7.9157   -5.0739 H         1 <0>         0.3890
     67 H33         9.5084   -6.5090   -8.2270 H         1 <0>         0.3808
     68 H34         7.9691   -6.8909   -9.6335 H         1 <0>         0.0603
     69 H35         9.1199   -8.0515  -10.3386 H         1 <0>         0.0583
     70 H36         7.0717   -7.9725  -11.5650 H         1 <0>         0.3856
     71 H37         1.5492  -12.4026   -4.6965 H         1 <0>         0.1295
     72 H38         1.5830  -14.8647   -4.7100 H         1 <0>         0.1235
     73 H39         2.3189  -16.0750   -6.7241 H         1 <0>         0.1224
     74 H40         3.0204  -14.8231   -8.7251 H         1 <0>         0.1236
     75 H41         2.9787  -12.3611   -8.7146 H         1 <0>         0.1204
     76 H42         1.0684   -9.3039   -5.8593 H         1 <0>         0.3747
@<TRIPOS>BOND
     1    1    2 1
     2    1   37 1
     3    1   38 1
     4    1   39 1
     5    2    3 1
     6    2   40 1
     7    2   41 1
     8    3    4 1
     9    3   42 1
    10    3   43 1
    11    4    5 1
    12    4   44 1
    13    4   45 1
    14    5    6 1
    15    5   46 1
    16    5   47 1
    17    6    7 1
    18    6   48 1
    19    6   49 1
    20    7    8 1
    21    7   50 1
    22    7   51 1
    23    8    9 1
    24    8   52 1
    25    8   53 1
    26    9   10 1
    27    9   54 1
    28    9   55 1
    29   10   11 2
    30   10   12 am
    31   12   13 1
    32   12   56 1
    33   13   14 1
    34   13   15 1
    35   13   28 1
    36   15   16 1
    37   15   57 1
    38   15   58 1
    39   16   17 1
    40   16   59 1
    41   17   22 1
    42   17   18 1
    43   17   60 1
    44   18   19 2
    45   18   61 1
    46   19   20 1
    47   19   26 1
    48   20   21 1
    49   20   25 1
    50   20   62 1
    51   21   22 1
    52   21   24 1
    53   21   63 1
    54   22   23 1
    55   22   64 1
    56   23   65 1
    57   24   66 1
    58   25   67 1
    59   26   27 1
    60   26   68 1
    61   26   69 1
    62   27   70 1
    63   28   29 1
    64   28   30 1
    65   28   36 1
    66   30   35 ar
    67   30   31 ar
    68   31   32 ar
    69   31   71 1
    70   32   33 ar
    71   32   72 1
    72   33   34 ar
    73   33   73 1
    74   34   35 ar
    75   34   74 1
    76   35   75 1
    77   36   76 1
@<TRIPOS>MOLECULE
CHEMBL60801__22
   77    78     0     0     0
SMALL
USER_CHARGES

@<TRIPOS>ATOM
      1 C1         -0.0187    1.5258    0.0104 C.3       1 <0>        -0.1550
      2 C2          0.0021   -0.0041    0.0020 C.3       1 <0>        -0.1264
      3 C3         -1.4333   -0.5336    0.0129 C.3       1 <0>        -0.1210
      4 C4         -1.4126   -2.0635    0.0045 C.3       1 <0>        -0.1218
      5 C5         -2.8479   -2.5931    0.0153 C.3       1 <0>        -0.1200
      6 C6         -2.8272   -4.1229    0.0069 C.3       1 <0>        -0.1200
      7 C7         -4.2626   -4.6525    0.0178 C.3       1 <0>        -0.1198
      8 C8         -4.2418   -6.1823    0.0094 C.3       1 <0>        -0.1037
      9 C9         -5.6772   -6.7119    0.0202 C.3       1 <0>        -0.1397
     10 C10        -5.6568   -8.2187    0.0119 C.2       1 <0>         0.5169
     11 O1         -4.5984   -8.8108   -0.0014 O.2       1 <0>        -0.4916
     12 N1         -6.8147   -8.9084    0.0193 N.am      1 <0>        -0.7583
     13 C11        -6.7948  -10.3733    0.0112 C.3       1 <0>         0.0948
     14 H1         -5.9538  -10.7220   -0.5882 H         1 <0>         0.1228
     15 C12        -8.1009  -10.8977   -0.5888 C.3       1 <0>        -0.0202
     16 N2         -8.3005  -10.3073   -1.9190 N.4       1 <0>        -0.4988
     17 C13        -9.5545  -10.8109   -2.4951 C.3       1 <0>         0.0853
     18 C14       -10.7093  -10.3434   -1.6585 C.2       1 <0>        -0.1781
     19 C15       -11.8207   -9.8914   -2.1442 C.2       1 <0>        -0.0857
     20 C16       -12.1061   -9.7625   -3.6118 C.3       1 <0>         0.1094
     21 C17       -11.1176  -10.6085   -4.4173 C.3       1 <0>         0.0863
     22 C18        -9.6982  -10.2934   -3.9280 C.3       1 <0>         0.0974
     23 O2         -9.4839   -8.8808   -3.9523 O.3       1 <0>        -0.5483
     24 O3        -11.3978  -11.9954   -4.2171 O.3       1 <0>        -0.5518
     25 O4        -11.9832   -8.3927   -3.9998 O.3       1 <0>        -0.5392
     26 C19       -12.8950   -9.4686   -1.1756 C.3       1 <0>         0.0972
     27 O5        -12.4347   -9.6670    0.1626 O.3       1 <0>        -0.5730
     28 C20        -6.6485  -10.8892    1.4442 C.3       1 <0>         0.1457
     29 H2         -6.5445  -11.9742    1.4308 H         1 <0>         0.1247
     30 C21        -5.4263  -10.2752    2.0768 C.ar      1 <0>        -0.1133
     31 C22        -5.5095   -9.0337    2.6790 C.ar      1 <0>        -0.1113
     32 C23        -4.3884   -8.4704    3.2593 C.ar      1 <0>        -0.1110
     33 C24        -3.1842   -9.1488    3.2378 C.ar      1 <0>        -0.1045
     34 C25        -3.1012  -10.3907    2.6364 C.ar      1 <0>        -0.1059
     35 C26        -4.2233  -10.9559    2.0599 C.ar      1 <0>        -0.0924
     36 O6         -7.8071  -10.5310    2.2001 O.3       1 <0>        -0.5445
     37 H3          1.0039    1.9031    0.0027 H         1 <0>         0.0548
     38 H4         -0.5459    1.8868   -0.8726 H         1 <0>         0.0534
     39 H5         -0.5289    1.8773    0.9072 H         1 <0>         0.0536
     40 H6          0.5123   -0.3556   -0.8948 H         1 <0>         0.0604
     41 H7          0.5293   -0.3651    0.8851 H         1 <0>         0.0607
     42 H8         -1.9435   -0.1821    0.9097 H         1 <0>         0.0608
     43 H9         -1.9605   -0.1726   -0.8702 H         1 <0>         0.0604
     44 H10        -0.9024   -2.4150   -0.8923 H         1 <0>         0.0609
     45 H11        -0.8854   -2.4246    0.8875 H         1 <0>         0.0612
     46 H12        -3.3581   -2.2415    0.9121 H         1 <0>         0.0609
     47 H13        -3.3751   -2.2320   -0.8677 H         1 <0>         0.0604
     48 H14        -2.3170   -4.4744   -0.8899 H         1 <0>         0.0618
     49 H15        -2.3000   -4.4840    0.8900 H         1 <0>         0.0625
     50 H16        -4.7728   -4.3010    0.9146 H         1 <0>         0.0625
     51 H17        -4.7898   -4.2914   -0.8653 H         1 <0>         0.0614
     52 H18        -3.7316   -6.5338   -0.8874 H         1 <0>         0.0689
     53 H19        -3.7146   -6.5434    0.8924 H         1 <0>         0.0726
     54 H20        -6.1874   -6.3604    0.9170 H         1 <0>         0.0958
     55 H21        -6.2044   -6.3508   -0.8628 H         1 <0>         0.0934
     56 H22        -7.6612   -8.4349    0.0299 H         1 <0>         0.4002
     57 H23        -8.0503  -11.9830   -0.6768 H         1 <0>         0.1502
     58 H24        -8.9339  -10.6242    0.0588 H         1 <0>         0.1490
     59 H25        -8.3473   -9.3027   -1.8375 H         1 <0>         0.4311
     60 H26        -9.5357  -11.9007   -2.5047 H         1 <0>         0.1625
     61 H27       -10.6068  -10.3873   -0.5842 H         1 <0>         0.1495
     62 H28       -13.1216  -10.1034   -3.8137 H         1 <0>         0.0790
     63 H29       -11.2031  -10.3634   -5.4759 H         1 <0>         0.0943
     64 H30        -8.9707  -10.7886   -4.5711 H         1 <0>         0.0950
     65 H31        -9.5603   -8.4865   -4.8319 H         1 <0>         0.4105
     66 H32       -12.2866  -12.2605   -4.4904 H         1 <0>         0.4002
     67 H33       -12.5883   -7.7971   -3.5371 H         1 <0>         0.3896
     68 H34       -13.1268   -8.4144   -1.3276 H         1 <0>         0.0700
     69 H35       -13.7913  -10.0656   -1.3439 H         1 <0>         0.0717
     70 H36       -13.0766   -9.4154    0.8407 H         1 <0>         0.3977
     71 H37        -6.4504   -8.5036    2.6958 H         1 <0>         0.1092
     72 H38        -4.4533   -7.5002    3.7292 H         1 <0>         0.1207
     73 H39        -2.3082   -8.7085    3.6906 H         1 <0>         0.1227
     74 H40        -2.1603  -10.9206    2.6193 H         1 <0>         0.1233
     75 H41        -4.1593  -11.9278    1.5933 H         1 <0>         0.1182
     76 H42        -7.9621   -9.5781    2.2544 H         1 <0>         0.3754
     77 H43        -7.5294  -10.5605   -2.5185 H         1 <0>         0.4284
@<TRIPOS>BOND
     1    1    2 1
     2    1   37 1
     3    1   38 1
     4    1   39 1
     5    2    3 1
     6    2   40 1
     7    2   41 1
     8    3    4 1
     9    3   42 1
    10    3   43 1
    11    4    5 1
    12    4   44 1
    13    4   45 1
    14    5    6 1
    15    5   46 1
    16    5   47 1
    17    6    7 1
    18    6   48 1
    19    6   49 1
    20    7    8 1
    21    7   50 1
    22    7   51 1
    23    8    9 1
    24    8   52 1
    25    8   53 1
    26    9   10 1
    27    9   54 1
    28    9   55 1
    29   10   11 2
    30   10   12 am
    31   12   13 1
    32   12   56 1
    33   13   14 1
    34   13   15 1
    35   13   28 1
    36   15   16 1
    37   15   57 1
    38   15   58 1
    39   16   17 1
    40   16   59 1
    41   16   77 1
    42   17   22 1
    43   17   18 1
    44   17   60 1
    45   18   19 2
    46   18   61 1
    47   19   20 1
    48   19   26 1
    49   20   21 1
    50   20   25 1
    51   20   62 1
    52   21   22 1
    53   21   24 1
    54   21   63 1
    55   22   23 1
    56   22   64 1
    57   23   65 1
    58   24   66 1
    59   25   67 1
    60   26   27 1
    61   26   68 1
    62   26   69 1
    63   27   70 1
    64   28   29 1
    65   28   30 1
    66   28   36 1
    67   30   35 ar
    68   30   31 ar
    69   31   32 ar
    70   31   71 1
    71   32   33 ar
    72   32   72 1
    73   33   34 ar
    74   33   73 1
    75   34   35 ar
    76   34   74 1
    77   35   75 1
    78   36   76 1
@<TRIPOS>MOLECULE
CHEMBL60801__23
   76    77     0     0     0
SMALL
USER_CHARGES

@<TRIPOS>ATOM
      1 C1         -0.0187    1.5258    0.0104 C.3       1 <0>        -0.1541
      2 C2          0.0021   -0.0041    0.0020 C.3       1 <0>        -0.1264
      3 C3          0.7182   -0.4975   -1.2568 C.3       1 <0>        -0.1209
      4 C4          0.7390   -2.0273   -1.2652 C.3       1 <0>        -0.1217
      5 C5          1.4551   -2.5207   -2.5240 C.3       1 <0>        -0.1199
      6 C6          1.4758   -4.0506   -2.5324 C.3       1 <0>        -0.1205
      7 C7          2.1920   -4.5440   -3.7912 C.3       1 <0>        -0.1199
      8 C8          2.2127   -6.0738   -3.7996 C.3       1 <0>        -0.1043
      9 C9          2.9289   -6.5673   -5.0584 C.3       1 <0>        -0.1419
     10 C10         2.9493   -8.0741   -5.0667 C.2       1 <0>         0.5074
     11 O1          2.4411   -8.6925   -4.1555 O.2       1 <0>        -0.5183
     12 N1          3.5323   -8.7345   -6.0867 N.am      1 <0>        -0.7324
     13 C11         3.5522  -10.1994   -6.0948 C.3       1 <0>         0.1222
     14 H1          3.6564  -10.5669   -5.0739 H         1 <0>         0.1074
     15 C12         4.7327  -10.6888   -6.9361 C.3       1 <0>         0.0496
     16 N2          5.9753  -10.0889   -6.4321 N.3       1 <0>        -0.6643
     17 C13         7.1327  -10.5372   -7.2177 C.3       1 <0>         0.1306
     18 C14         7.2684   -9.6762   -8.4393 C.2       1 <0>        -0.1255
     19 C15         8.3950   -9.2174   -8.8817 C.2       1 <0>        -0.1644
     20 C16         9.7219   -9.4743   -8.2294 C.3       1 <0>         0.1277
     21 C17         9.6151  -10.6585   -7.2660 C.3       1 <0>         0.0776
     22 C18         8.3965  -10.4388   -6.3604 C.3       1 <0>         0.1317
     23 O2          8.4704   -9.1438   -5.7607 O.3       1 <0>        -0.5302
     24 O3          9.4499  -11.8683   -8.0083 O.3       1 <0>        -0.5469
     25 O4         10.1275   -8.3105   -7.5062 O.3       1 <0>        -0.5426
     26 C19         8.3729   -8.3730  -10.1297 C.3       1 <0>         0.1100
     27 O5          7.0278   -8.2460  -10.5951 O.3       1 <0>        -0.5695
     28 C20         2.2461  -10.7238   -6.6948 C.3       1 <0>         0.1400
     29 H2          2.1419  -10.3563   -7.7156 H         1 <0>         0.0615
     30 C21         2.2665  -12.2307   -6.7031 C.ar      1 <0>        -0.0841
     31 C22         1.8719  -12.9334   -5.5800 C.ar      1 <0>        -0.0860
     32 C23         1.8906  -14.3156   -5.5876 C.ar      1 <0>        -0.1222
     33 C24         2.3036  -14.9951   -6.7184 C.ar      1 <0>        -0.1154
     34 C25         2.6974  -14.2923   -7.8418 C.ar      1 <0>        -0.1220
     35 C26         2.6746  -12.9102   -7.8356 C.ar      1 <0>        -0.1111
     36 O6          1.1436  -10.2667   -5.9090 O.3       1 <0>        -0.5433
     37 H3          1.0039    1.9031    0.0027 H         1 <0>         0.0531
     38 H4         -0.5459    1.8868   -0.8726 H         1 <0>         0.0531
     39 H5         -0.5289    1.8773    0.9072 H         1 <0>         0.0533
     40 H6          0.5293   -0.3651    0.8851 H         1 <0>         0.0604
     41 H7         -1.0205   -0.3814    0.0098 H         1 <0>         0.0604
     42 H8          0.1910   -0.1364   -2.1398 H         1 <0>         0.0602
     43 H9          1.7408   -0.1202   -1.2645 H         1 <0>         0.0603
     44 H10         1.2661   -2.3884   -0.3821 H         1 <0>         0.0610
     45 H11        -0.2836   -2.4046   -1.2575 H         1 <0>         0.0609
     46 H12         0.9279   -2.1597   -3.4071 H         1 <0>         0.0601
     47 H13         2.4777   -2.1435   -2.5317 H         1 <0>         0.0603
     48 H14         2.0030   -4.4117   -1.6494 H         1 <0>         0.0622
     49 H15         0.4533   -4.4279   -2.5247 H         1 <0>         0.0621
     50 H16         1.6648   -4.1829   -4.6743 H         1 <0>         0.0611
     51 H17         3.2146   -4.1667   -3.7990 H         1 <0>         0.0616
     52 H18         2.7399   -6.4349   -2.9166 H         1 <0>         0.0703
     53 H19         1.1901   -6.4511   -3.7919 H         1 <0>         0.0701
     54 H20         2.4017   -6.2062   -5.9415 H         1 <0>         0.0919
     55 H21         3.9515   -6.1900   -5.0662 H         1 <0>         0.0941
     56 H22         3.9388   -8.2400   -6.8155 H         1 <0>         0.3981
     57 H23         4.8005  -11.7747   -6.8700 H         1 <0>         0.0934
     58 H24         4.5838  -10.3967   -7.9756 H         1 <0>         0.0366
     59 H25         5.9128   -9.0819   -6.4227 H         1 <0>         0.3490
     60 H26         6.9830  -11.5729   -7.5229 H         1 <0>         0.1052
     61 H27         6.3702   -9.4240   -8.9833 H         1 <0>         0.1202
     62 H28        10.4640   -9.6979   -8.9958 H         1 <0>         0.0580
     63 H29        10.5176  -10.7185   -6.6577 H         1 <0>         0.0728
     64 H30         8.3737  -11.2043   -5.5848 H         1 <0>         0.0699
     65 H31         9.2491   -9.0127   -5.2025 H         1 <0>         0.3775
     66 H32        10.1784  -12.0604   -8.6145 H         1 <0>         0.3824
     67 H33        10.2266   -7.5208   -8.0555 H         1 <0>         0.3781
     68 H34         8.7751   -7.3847   -9.9069 H         1 <0>         0.0533
     69 H35         8.9808   -8.8473  -10.9001 H         1 <0>         0.0545
     70 H36         6.9379   -7.7138  -11.3975 H         1 <0>         0.3839
     71 H37         1.5492  -12.4026   -4.6965 H         1 <0>         0.1295
     72 H38         1.5830  -14.8647   -4.7100 H         1 <0>         0.1232
     73 H39         2.3189  -16.0750   -6.7241 H         1 <0>         0.1220
     74 H40         3.0204  -14.8231   -8.7251 H         1 <0>         0.1231
     75 H41         2.9787  -12.3611   -8.7146 H         1 <0>         0.1200
     76 H42         1.0684   -9.3039   -5.8593 H         1 <0>         0.3747
@<TRIPOS>BOND
     1    1    2 1
     2    1   37 1
     3    1   38 1
     4    1   39 1
     5    2    3 1
     6    2   40 1
     7    2   41 1
     8    3    4 1
     9    3   42 1
    10    3   43 1
    11    4    5 1
    12    4   44 1
    13    4   45 1
    14    5    6 1
    15    5   46 1
    16    5   47 1
    17    6    7 1
    18    6   48 1
    19    6   49 1
    20    7    8 1
    21    7   50 1
    22    7   51 1
    23    8    9 1
    24    8   52 1
    25    8   53 1
    26    9   10 1
    27    9   54 1
    28    9   55 1
    29   10   11 2
    30   10   12 am
    31   12   13 1
    32   12   56 1
    33   13   14 1
    34   13   15 1
    35   13   28 1
    36   15   16 1
    37   15   57 1
    38   15   58 1
    39   16   17 1
    40   16   59 1
    41   17   22 1
    42   17   18 1
    43   17   60 1
    44   18   19 2
    45   18   61 1
    46   19   20 1
    47   19   26 1
    48   20   21 1
    49   20   25 1
    50   20   62 1
    51   21   22 1
    52   21   24 1
    53   21   63 1
    54   22   23 1
    55   22   64 1
    56   23   65 1
    57   24   66 1
    58   25   67 1
    59   26   27 1
    60   26   68 1
    61   26   69 1
    62   27   70 1
    63   28   29 1
    64   28   30 1
    65   28   36 1
    66   30   35 ar
    67   30   31 ar
    68   31   32 ar
    69   31   71 1
    70   32   33 ar
    71   32   72 1
    72   33   34 ar
    73   33   73 1
    74   34   35 ar
    75   34   74 1
    76   35   75 1
    77   36   76 1
@<TRIPOS>MOLECULE
CHEMBL60801__24
   77    78     0     0     0
SMALL
USER_CHARGES

@<TRIPOS>ATOM
      1 C1         -0.0187    1.5258    0.0104 C.3       1 <0>        -0.1550
      2 C2          0.0021   -0.0041    0.0020 C.3       1 <0>        -0.1264
      3 C3         -1.4333   -0.5336    0.0129 C.3       1 <0>        -0.1210
      4 C4         -1.4126   -2.0635    0.0045 C.3       1 <0>        -0.1219
      5 C5         -2.8479   -2.5931    0.0153 C.3       1 <0>        -0.1199
      6 C6         -2.8272   -4.1229    0.0069 C.3       1 <0>        -0.1202
      7 C7         -4.2626   -4.6525    0.0178 C.3       1 <0>        -0.1196
      8 C8         -4.2418   -6.1823    0.0094 C.3       1 <0>        -0.1044
      9 C9         -5.6772   -6.7119    0.0202 C.3       1 <0>        -0.1394
     10 C10        -5.6568   -8.2187    0.0119 C.2       1 <0>         0.5156
     11 O1         -4.5984   -8.8108   -0.0014 O.2       1 <0>        -0.4887
     12 N1         -6.8147   -8.9084    0.0193 N.am      1 <0>        -0.7600
     13 C11        -6.7948  -10.3733    0.0112 C.3       1 <0>         0.0941
     14 H1         -5.9538  -10.7220   -0.5882 H         1 <0>         0.1244
     15 C12        -8.1009  -10.8977   -0.5888 C.3       1 <0>        -0.0190
     16 N2         -8.3005  -10.3073   -1.9190 N.4       1 <0>        -0.4997
     17 C13        -9.5545  -10.8109   -2.4951 C.3       1 <0>         0.0803
     18 C14       -10.7093  -10.3434   -1.6585 C.2       1 <0>        -0.2038
     19 C15       -11.8207   -9.8914   -2.1442 C.2       1 <0>        -0.0814
     20 C16       -12.1061   -9.7625   -3.6118 C.3       1 <0>         0.0985
     21 C17       -11.1176  -10.6085   -4.4173 C.3       1 <0>         0.0946
     22 C18        -9.6982  -10.2934   -3.9280 C.3       1 <0>         0.0986
     23 O2         -8.7444  -10.9426   -4.7711 O.3       1 <0>        -0.5570
     24 O3        -11.2297  -10.2871   -5.8051 O.3       1 <0>        -0.5542
     25 O4        -13.4374  -10.2094   -3.8765 O.3       1 <0>        -0.5488
     26 C19       -12.8950   -9.4686   -1.1756 C.3       1 <0>         0.0929
     27 O5        -12.4347   -9.6670    0.1626 O.3       1 <0>        -0.5721
     28 C20        -6.6485  -10.8892    1.4442 C.3       1 <0>         0.1461
     29 H2         -6.5445  -11.9742    1.4308 H         1 <0>         0.1253
     30 C21        -5.4263  -10.2752    2.0768 C.ar      1 <0>        -0.1141
     31 C22        -5.5095   -9.0337    2.6790 C.ar      1 <0>        -0.1116
     32 C23        -4.3884   -8.4704    3.2593 C.ar      1 <0>        -0.1112
     33 C24        -3.1842   -9.1488    3.2378 C.ar      1 <0>        -0.1042
     34 C25        -3.1012  -10.3907    2.6364 C.ar      1 <0>        -0.1056
     35 C26        -4.2233  -10.9559    2.0599 C.ar      1 <0>        -0.0921
     36 O6         -7.8071  -10.5310    2.2001 O.3       1 <0>        -0.5442
     37 H3          1.0039    1.9031    0.0027 H         1 <0>         0.0549
     38 H4         -0.5459    1.8868   -0.8726 H         1 <0>         0.0534
     39 H5         -0.5289    1.8773    0.9072 H         1 <0>         0.0536
     40 H6          0.5123   -0.3556   -0.8948 H         1 <0>         0.0605
     41 H7          0.5293   -0.3651    0.8851 H         1 <0>         0.0607
     42 H8         -1.9435   -0.1821    0.9097 H         1 <0>         0.0607
     43 H9         -1.9605   -0.1726   -0.8702 H         1 <0>         0.0604
     44 H10        -0.9024   -2.4150   -0.8923 H         1 <0>         0.0610
     45 H11        -0.8854   -2.4246    0.8875 H         1 <0>         0.0613
     46 H12        -3.3581   -2.2415    0.9121 H         1 <0>         0.0609
     47 H13        -3.3751   -2.2320   -0.8677 H         1 <0>         0.0603
     48 H14        -2.3170   -4.4744   -0.8899 H         1 <0>         0.0619
     49 H15        -2.3000   -4.4840    0.8900 H         1 <0>         0.0627
     50 H16        -4.7728   -4.3010    0.9146 H         1 <0>         0.0626
     51 H17        -4.7898   -4.2914   -0.8653 H         1 <0>         0.0611
     52 H18        -3.7316   -6.5338   -0.8874 H         1 <0>         0.0693
     53 H19        -3.7146   -6.5434    0.8924 H         1 <0>         0.0731
     54 H20        -6.1874   -6.3604    0.9170 H         1 <0>         0.0964
     55 H21        -6.2044   -6.3508   -0.8628 H         1 <0>         0.0924
     56 H22        -7.6612   -8.4349    0.0299 H         1 <0>         0.3992
     57 H23        -8.0503  -11.9830   -0.6768 H         1 <0>         0.1525
     58 H24        -8.9339  -10.6242    0.0588 H         1 <0>         0.1507
     59 H25        -8.3473   -9.3027   -1.8375 H         1 <0>         0.4220
     60 H26        -9.5357  -11.9007   -2.5047 H         1 <0>         0.1600
     61 H27       -10.6068  -10.3873   -0.5842 H         1 <0>         0.1612
     62 H28       -12.0124   -8.7177   -3.9078 H         1 <0>         0.0937
     63 H29       -11.3313  -11.6664   -4.2646 H         1 <0>         0.0884
     64 H30        -9.5347   -9.2159   -3.9465 H         1 <0>         0.0892
     65 H31        -8.7804  -10.6608   -5.6954 H         1 <0>         0.4166
     66 H32       -12.1083  -10.4472   -6.1762 H         1 <0>         0.4074
     67 H33       -14.1202   -9.7109   -3.4071 H         1 <0>         0.3929
     68 H34       -13.1268   -8.4144   -1.3276 H         1 <0>         0.0762
     69 H35       -13.7913  -10.0656   -1.3439 H         1 <0>         0.0791
     70 H36       -13.0766   -9.4154    0.8407 H         1 <0>         0.4005
     71 H37        -6.4504   -8.5036    2.6958 H         1 <0>         0.1092
     72 H38        -4.4533   -7.5002    3.7292 H         1 <0>         0.1207
     73 H39        -2.3082   -8.7085    3.6906 H         1 <0>         0.1229
     74 H40        -2.1603  -10.9206    2.6193 H         1 <0>         0.1236
     75 H41        -4.1593  -11.9278    1.5933 H         1 <0>         0.1185
     76 H42        -7.9621   -9.5781    2.2544 H         1 <0>         0.3752
     77 H43        -7.5294  -10.5605   -2.5185 H         1 <0>         0.4379
@<TRIPOS>BOND
     1    1    2 1
     2    1   37 1
     3    1   38 1
     4    1   39 1
     5    2    3 1
     6    2   40 1
     7    2   41 1
     8    3    4 1
     9    3   42 1
    10    3   43 1
    11    4    5 1
    12    4   44 1
    13    4   45 1
    14    5    6 1
    15    5   46 1
    16    5   47 1
    17    6    7 1
    18    6   48 1
    19    6   49 1
    20    7    8 1
    21    7   50 1
    22    7   51 1
    23    8    9 1
    24    8   52 1
    25    8   53 1
    26    9   10 1
    27    9   54 1
    28    9   55 1
    29   10   11 2
    30   10   12 am
    31   12   13 1
    32   12   56 1
    33   13   14 1
    34   13   15 1
    35   13   28 1
    36   15   16 1
    37   15   57 1
    38   15   58 1
    39   16   17 1
    40   16   59 1
    41   16   77 1
    42   17   22 1
    43   17   18 1
    44   17   60 1
    45   18   19 2
    46   18   61 1
    47   19   20 1
    48   19   26 1
    49   20   21 1
    50   20   25 1
    51   20   62 1
    52   21   22 1
    53   21   24 1
    54   21   63 1
    55   22   23 1
    56   22   64 1
    57   23   65 1
    58   24   66 1
    59   25   67 1
    60   26   27 1
    61   26   68 1
    62   26   69 1
    63   27   70 1
    64   28   29 1
    65   28   30 1
    66   28   36 1
    67   30   35 ar
    68   30   31 ar
    69   31   32 ar
    70   31   71 1
    71   32   33 ar
    72   32   72 1
    73   33   34 ar
    74   33   73 1
    75   34   35 ar
    76   34   74 1
    77   35   75 1
    78   36   76 1
@<TRIPOS>MOLECULE
CHEMBL60801__25
   76    77     0     0     0
SMALL
USER_CHARGES

@<TRIPOS>ATOM
      1 C1         -0.0187    1.5258    0.0104 C.3       1 <0>        -0.1542
      2 C2          0.0021   -0.0041    0.0020 C.3       1 <0>        -0.1265
      3 C3          0.7182   -0.4975   -1.2568 C.3       1 <0>        -0.1209
      4 C4          0.7390   -2.0273   -1.2652 C.3       1 <0>        -0.1218
      5 C5          1.4551   -2.5207   -2.5240 C.3       1 <0>        -0.1198
      6 C6          1.4758   -4.0506   -2.5324 C.3       1 <0>        -0.1207
      7 C7          2.1920   -4.5440   -3.7912 C.3       1 <0>        -0.1197
      8 C8          2.2127   -6.0738   -3.7996 C.3       1 <0>        -0.1050
      9 C9          2.9289   -6.5673   -5.0584 C.3       1 <0>        -0.1415
     10 C10         2.9493   -8.0741   -5.0667 C.2       1 <0>         0.5062
     11 O1          2.4411   -8.6925   -4.1555 O.2       1 <0>        -0.5158
     12 N1          3.5323   -8.7345   -6.0867 N.am      1 <0>        -0.7340
     13 C11         3.5522  -10.1994   -6.0948 C.3       1 <0>         0.1211
     14 H1          3.6564  -10.5669   -5.0739 H         1 <0>         0.1091
     15 C12         4.7327  -10.6888   -6.9361 C.3       1 <0>         0.0534
     16 N2          5.9753  -10.0889   -6.4321 N.3       1 <0>        -0.6619
     17 C13         7.1327  -10.5372   -7.2177 C.3       1 <0>         0.1237
     18 C14         7.2684   -9.6762   -8.4393 C.2       1 <0>        -0.1514
     19 C15         8.3950   -9.2174   -8.8817 C.2       1 <0>        -0.1590
     20 C16         9.7219   -9.4743   -8.2294 C.3       1 <0>         0.1158
     21 C17         9.6151  -10.6585   -7.2660 C.3       1 <0>         0.0852
     22 C18         8.3965  -10.4388   -6.3604 C.3       1 <0>         0.1366
     23 O2          8.3666  -11.4424   -5.3436 O.3       1 <0>        -0.5416
     24 O3         10.7983  -10.7372   -6.4686 O.3       1 <0>        -0.5596
     25 O4         10.6948   -9.7674   -9.2341 O.3       1 <0>        -0.5588
     26 C19         8.3729   -8.3730  -10.1297 C.3       1 <0>         0.1061
     27 O5          7.0278   -8.2460  -10.5951 O.3       1 <0>        -0.5689
     28 C20         2.2461  -10.7238   -6.6948 C.3       1 <0>         0.1408
     29 H2          2.1419  -10.3563   -7.7156 H         1 <0>         0.0618
     30 C21         2.2665  -12.2307   -6.7031 C.ar      1 <0>        -0.0853
     31 C22         1.8719  -12.9334   -5.5800 C.ar      1 <0>        -0.0853
     32 C23         1.8906  -14.3156   -5.5876 C.ar      1 <0>        -0.1215
     33 C24         2.3036  -14.9951   -6.7184 C.ar      1 <0>        -0.1146
     34 C25         2.6974  -14.2923   -7.8418 C.ar      1 <0>        -0.1220
     35 C26         2.6746  -12.9102   -7.8356 C.ar      1 <0>        -0.1117
     36 O6          1.1436  -10.2667   -5.9090 O.3       1 <0>        -0.5427
     37 H3          1.0039    1.9031    0.0027 H         1 <0>         0.0531
     38 H4         -0.5459    1.8868   -0.8726 H         1 <0>         0.0531
     39 H5         -0.5289    1.8773    0.9072 H         1 <0>         0.0534
     40 H6          0.5293   -0.3651    0.8851 H         1 <0>         0.0604
     41 H7         -1.0205   -0.3814    0.0098 H         1 <0>         0.0604
     42 H8          0.1910   -0.1364   -2.1398 H         1 <0>         0.0602
     43 H9          1.7408   -0.1202   -1.2645 H         1 <0>         0.0602
     44 H10         1.2661   -2.3884   -0.3821 H         1 <0>         0.0610
     45 H11        -0.2836   -2.4046   -1.2575 H         1 <0>         0.0610
     46 H12         0.9279   -2.1597   -3.4071 H         1 <0>         0.0602
     47 H13         2.4777   -2.1435   -2.5317 H         1 <0>         0.0601
     48 H14         2.0030   -4.4117   -1.6494 H         1 <0>         0.0623
     49 H15         0.4533   -4.4279   -2.5247 H         1 <0>         0.0624
     50 H16         1.6648   -4.1829   -4.6743 H         1 <0>         0.0613
     51 H17         3.2146   -4.1667   -3.7990 H         1 <0>         0.0612
     52 H18         2.7399   -6.4349   -2.9166 H         1 <0>         0.0705
     53 H19         1.1901   -6.4511   -3.7919 H         1 <0>         0.0707
     54 H20         2.4017   -6.2062   -5.9415 H         1 <0>         0.0925
     55 H21         3.9515   -6.1900   -5.0662 H         1 <0>         0.0931
     56 H22         3.9388   -8.2400   -6.8155 H         1 <0>         0.3976
     57 H23         4.8005  -11.7747   -6.8700 H         1 <0>         0.0968
     58 H24         4.5838  -10.3967   -7.9756 H         1 <0>         0.0389
     59 H25         5.9128   -9.0819   -6.4227 H         1 <0>         0.3408
     60 H26         6.9830  -11.5729   -7.5229 H         1 <0>         0.1022
     61 H27         6.3702   -9.4240   -8.9833 H         1 <0>         0.1332
     62 H28        10.0313   -8.5866   -7.6778 H         1 <0>         0.0776
     63 H29         9.4891  -11.5813   -7.8322 H         1 <0>         0.0750
     64 H30         8.4529   -9.4510   -5.9030 H         1 <0>         0.0649
     65 H31         9.1396  -11.4368   -4.7626 H         1 <0>         0.3853
     66 H32        11.6098  -10.8597   -6.9800 H         1 <0>         0.3914
     67 H33        10.8242   -9.0557   -9.8758 H         1 <0>         0.3820
     68 H34         8.7751   -7.3847   -9.9069 H         1 <0>         0.0591
     69 H35         8.9808   -8.8473  -10.9001 H         1 <0>         0.0628
     70 H36         6.9379   -7.7138  -11.3975 H         1 <0>         0.3870
     71 H37         1.5492  -12.4026   -4.6965 H         1 <0>         0.1295
     72 H38         1.5830  -14.8647   -4.7100 H         1 <0>         0.1235
     73 H39         2.3189  -16.0750   -6.7241 H         1 <0>         0.1223
     74 H40         3.0204  -14.8231   -8.7251 H         1 <0>         0.1231
     75 H41         2.9787  -12.3611   -8.7146 H         1 <0>         0.1198
     76 H42         1.0684   -9.3039   -5.8593 H         1 <0>         0.3744
@<TRIPOS>BOND
     1    1    2 1
     2    1   37 1
     3    1   38 1
     4    1   39 1
     5    2    3 1
     6    2   40 1
     7    2   41 1
     8    3    4 1
     9    3   42 1
    10    3   43 1
    11    4    5 1
    12    4   44 1
    13    4   45 1
    14    5    6 1
    15    5   46 1
    16    5   47 1
    17    6    7 1
    18    6   48 1
    19    6   49 1
    20    7    8 1
    21    7   50 1
    22    7   51 1
    23    8    9 1
    24    8   52 1
    25    8   53 1
    26    9   10 1
    27    9   54 1
    28    9   55 1
    29   10   11 2
    30   10   12 am
    31   12   13 1
    32   12   56 1
    33   13   14 1
    34   13   15 1
    35   13   28 1
    36   15   16 1
    37   15   57 1
    38   15   58 1
    39   16   17 1
    40   16   59 1
    41   17   22 1
    42   17   18 1
    43   17   60 1
    44   18   19 2
    45   18   61 1
    46   19   20 1
    47   19   26 1
    48   20   21 1
    49   20   25 1
    50   20   62 1
    51   21   22 1
    52   21   24 1
    53   21   63 1
    54   22   23 1
    55   22   64 1
    56   23   65 1
    57   24   66 1
    58   25   67 1
    59   26   27 1
    60   26   68 1
    61   26   69 1
    62   27   70 1
    63   28   29 1
    64   28   30 1
    65   28   36 1
    66   30   35 ar
    67   30   31 ar
    68   31   32 ar
    69   31   71 1
    70   32   33 ar
    71   32   72 1
    72   33   34 ar
    73   33   73 1
    74   34   35 ar
    75   34   74 1
    76   35   75 1
    77   36   76 1
@<TRIPOS>MOLECULE
CHEMBL60801__26
   77    78     0     0     0
SMALL
USER_CHARGES

@<TRIPOS>ATOM
      1 C1         -0.0187    1.5258    0.0104 C.3       1 <0>        -0.1550
      2 C2          0.0021   -0.0041    0.0020 C.3       1 <0>        -0.1264
      3 C3         -1.4333   -0.5336    0.0129 C.3       1 <0>        -0.1210
      4 C4         -1.4126   -2.0635    0.0045 C.3       1 <0>        -0.1218
      5 C5         -2.8479   -2.5931    0.0153 C.3       1 <0>        -0.1200
      6 C6         -2.8272   -4.1229    0.0069 C.3       1 <0>        -0.1200
      7 C7         -4.2626   -4.6525    0.0178 C.3       1 <0>        -0.1198
      8 C8         -4.2418   -6.1823    0.0094 C.3       1 <0>        -0.1038
      9 C9         -5.6772   -6.7119    0.0202 C.3       1 <0>        -0.1397
     10 C10        -5.6568   -8.2187    0.0119 C.2       1 <0>         0.5169
     11 O1         -4.5984   -8.8108   -0.0014 O.2       1 <0>        -0.4908
     12 N1         -6.8147   -8.9084    0.0193 N.am      1 <0>        -0.7589
     13 C11        -6.7948  -10.3733    0.0112 C.3       1 <0>         0.0945
     14 H1         -5.9538  -10.7220   -0.5882 H         1 <0>         0.1234
     15 C12        -8.1009  -10.8977   -0.5888 C.3       1 <0>        -0.0207
     16 N2         -8.3005  -10.3073   -1.9190 N.4       1 <0>        -0.4968
     17 C13        -9.5545  -10.8109   -2.4951 C.3       1 <0>         0.0825
     18 C14       -10.7093  -10.3434   -1.6585 C.2       1 <0>        -0.2039
     19 C15       -11.8207   -9.8914   -2.1442 C.2       1 <0>        -0.0734
     20 C16       -12.1057   -9.7616   -3.6118 C.3       1 <0>         0.1041
     21 C17       -11.1174  -10.6077   -4.4175 C.3       1 <0>         0.0924
     22 C18        -9.6982  -10.2934   -3.9280 C.3       1 <0>         0.0957
     23 O2         -9.4839   -8.8808   -3.9523 O.3       1 <0>        -0.5671
     24 O3        -11.2292  -10.2855   -5.8052 O.3       1 <0>        -0.5547
     25 O4        -13.4372  -10.2077   -3.8770 O.3       1 <0>        -0.5537
     26 C19       -12.8950   -9.4686   -1.1756 C.3       1 <0>         0.0931
     27 O5        -12.4347   -9.6670    0.1626 O.3       1 <0>        -0.5720
     28 C20        -6.6485  -10.8892    1.4442 C.3       1 <0>         0.1459
     29 H2         -6.5445  -11.9742    1.4308 H         1 <0>         0.1249
     30 C21        -5.4263  -10.2752    2.0768 C.ar      1 <0>        -0.1139
     31 C22        -5.5095   -9.0337    2.6790 C.ar      1 <0>        -0.1113
     32 C23        -4.3884   -8.4704    3.2593 C.ar      1 <0>        -0.1110
     33 C24        -3.1842   -9.1488    3.2378 C.ar      1 <0>        -0.1042
     34 C25        -3.1012  -10.3907    2.6364 C.ar      1 <0>        -0.1058
     35 C26        -4.2233  -10.9559    2.0599 C.ar      1 <0>        -0.0923
     36 O6         -7.8071  -10.5310    2.2001 O.3       1 <0>        -0.5445
     37 H3          1.0039    1.9031    0.0027 H         1 <0>         0.0549
     38 H4         -0.5459    1.8868   -0.8726 H         1 <0>         0.0535
     39 H5         -0.5289    1.8773    0.9072 H         1 <0>         0.0537
     40 H6          0.5123   -0.3556   -0.8948 H         1 <0>         0.0605
     41 H7          0.5293   -0.3651    0.8851 H         1 <0>         0.0607
     42 H8         -1.9435   -0.1821    0.9097 H         1 <0>         0.0608
     43 H9         -1.9605   -0.1726   -0.8702 H         1 <0>         0.0604
     44 H10        -0.9024   -2.4150   -0.8923 H         1 <0>         0.0609
     45 H11        -0.8854   -2.4246    0.8875 H         1 <0>         0.0612
     46 H12        -3.3581   -2.2415    0.9121 H         1 <0>         0.0609
     47 H13        -3.3751   -2.2320   -0.8677 H         1 <0>         0.0604
     48 H14        -2.3170   -4.4744   -0.8899 H         1 <0>         0.0618
     49 H15        -2.3000   -4.4840    0.8900 H         1 <0>         0.0625
     50 H16        -4.7728   -4.3010    0.9146 H         1 <0>         0.0626
     51 H17        -4.7898   -4.2914   -0.8653 H         1 <0>         0.0614
     52 H18        -3.7316   -6.5338   -0.8874 H         1 <0>         0.0690
     53 H19        -3.7146   -6.5434    0.8924 H         1 <0>         0.0727
     54 H20        -6.1874   -6.3604    0.9170 H         1 <0>         0.0960
     55 H21        -6.2044   -6.3508   -0.8628 H         1 <0>         0.0934
     56 H22        -7.6612   -8.4349    0.0299 H         1 <0>         0.4002
     57 H23        -8.0503  -11.9830   -0.6768 H         1 <0>         0.1514
     58 H24        -8.9339  -10.6242    0.0588 H         1 <0>         0.1505
     59 H25        -8.3473   -9.3027   -1.8375 H         1 <0>         0.4326
     60 H26        -9.5357  -11.9007   -2.5047 H         1 <0>         0.1610
     61 H27       -10.6068  -10.3873   -0.5842 H         1 <0>         0.1548
     62 H28       -12.0114   -8.7167   -3.9072 H         1 <0>         0.0955
     63 H29       -11.3317  -11.6655   -4.2654 H         1 <0>         0.0875
     64 H30        -8.9707  -10.7886   -4.5711 H         1 <0>         0.1039
     65 H31        -9.5603   -8.4865   -4.8319 H         1 <0>         0.4160
     66 H32       -12.1077  -10.4449   -6.1765 H         1 <0>         0.4062
     67 H33       -14.1199   -9.7091   -3.4075 H         1 <0>         0.3919
     68 H34       -13.1268   -8.4144   -1.3276 H         1 <0>         0.0745
     69 H35       -13.7913  -10.0656   -1.3439 H         1 <0>         0.0769
     70 H36       -13.0766   -9.4154    0.8407 H         1 <0>         0.3991
     71 H37        -6.4504   -8.5036    2.6958 H         1 <0>         0.1093
     72 H38        -4.4533   -7.5002    3.7292 H         1 <0>         0.1208
     73 H39        -2.3082   -8.7085    3.6906 H         1 <0>         0.1229
     74 H40        -2.1603  -10.9206    2.6193 H         1 <0>         0.1234
     75 H41        -4.1593  -11.9278    1.5933 H         1 <0>         0.1182
     76 H42        -7.9621   -9.5781    2.2544 H         1 <0>         0.3757
     77 H43        -7.5294  -10.5605   -2.5185 H         1 <0>         0.4300
@<TRIPOS>BOND
     1    1    2 1
     2    1   37 1
     3    1   38 1
     4    1   39 1
     5    2    3 1
     6    2   40 1
     7    2   41 1
     8    3    4 1
     9    3   42 1
    10    3   43 1
    11    4    5 1
    12    4   44 1
    13    4   45 1
    14    5    6 1
    15    5   46 1
    16    5   47 1
    17    6    7 1
    18    6   48 1
    19    6   49 1
    20    7    8 1
    21    7   50 1
    22    7   51 1
    23    8    9 1
    24    8   52 1
    25    8   53 1
    26    9   10 1
    27    9   54 1
    28    9   55 1
    29   10   11 2
    30   10   12 am
    31   12   13 1
    32   12   56 1
    33   13   14 1
    34   13   15 1
    35   13   28 1
    36   15   16 1
    37   15   57 1
    38   15   58 1
    39   16   17 1
    40   16   59 1
    41   16   77 1
    42   17   22 1
    43   17   18 1
    44   17   60 1
    45   18   19 2
    46   18   61 1
    47   19   20 1
    48   19   26 1
    49   20   21 1
    50   20   25 1
    51   20   62 1
    52   21   22 1
    53   21   24 1
    54   21   63 1
    55   22   23 1
    56   22   64 1
    57   23   65 1
    58   24   66 1
    59   25   67 1
    60   26   27 1
    61   26   68 1
    62   26   69 1
    63   27   70 1
    64   28   29 1
    65   28   30 1
    66   28   36 1
    67   30   35 ar
    68   30   31 ar
    69   31   32 ar
    70   31   71 1
    71   32   33 ar
    72   32   72 1
    73   33   34 ar
    74   33   73 1
    75   34   35 ar
    76   34   74 1
    77   35   75 1
    78   36   76 1
@<TRIPOS>MOLECULE
CHEMBL60801__27
   76    77     0     0     0
SMALL
USER_CHARGES

@<TRIPOS>ATOM
      1 C1         -0.0187    1.5258    0.0104 C.3       1 <0>        -0.1542
      2 C2          0.0021   -0.0041    0.0020 C.3       1 <0>        -0.1264
      3 C3          0.7182   -0.4975   -1.2568 C.3       1 <0>        -0.1209
      4 C4          0.7390   -2.0273   -1.2652 C.3       1 <0>        -0.1217
      5 C5          1.4551   -2.5207   -2.5240 C.3       1 <0>        -0.1199
      6 C6          1.4758   -4.0506   -2.5324 C.3       1 <0>        -0.1205
      7 C7          2.1920   -4.5440   -3.7912 C.3       1 <0>        -0.1199
      8 C8          2.2127   -6.0738   -3.7996 C.3       1 <0>        -0.1045
      9 C9          2.9289   -6.5673   -5.0584 C.3       1 <0>        -0.1418
     10 C10         2.9493   -8.0741   -5.0667 C.2       1 <0>         0.5074
     11 O1          2.4411   -8.6925   -4.1555 O.2       1 <0>        -0.5175
     12 N1          3.5323   -8.7345   -6.0867 N.am      1 <0>        -0.7331
     13 C11         3.5522  -10.1994   -6.0948 C.3       1 <0>         0.1220
     14 H1          3.6564  -10.5669   -5.0739 H         1 <0>         0.1080
     15 C12         4.7327  -10.6888   -6.9361 C.3       1 <0>         0.0487
     16 N2          5.9753  -10.0889   -6.4321 N.3       1 <0>        -0.6612
     17 C13         7.1327  -10.5372   -7.2177 C.3       1 <0>         0.1258
     18 C14         7.2684   -9.6762   -8.4393 C.2       1 <0>        -0.1512
     19 C15         8.3950   -9.2174   -8.8817 C.2       1 <0>        -0.1515
     20 C16         9.7218   -9.4735   -8.2288 C.3       1 <0>         0.1215
     21 C17         9.6153  -10.6577   -7.2655 C.3       1 <0>         0.0832
     22 C18         8.3965  -10.4388   -6.3604 C.3       1 <0>         0.1330
     23 O2          8.4704   -9.1438   -5.7607 O.3       1 <0>        -0.5504
     24 O3         10.7982  -10.7358   -6.4676 O.3       1 <0>        -0.5603
     25 O4         10.6953   -9.7660   -9.2332 O.3       1 <0>        -0.5639
     26 C19         8.3729   -8.3730  -10.1297 C.3       1 <0>         0.1062
     27 O5          7.0278   -8.2460  -10.5951 O.3       1 <0>        -0.5688
     28 C20         2.2461  -10.7238   -6.6948 C.3       1 <0>         0.1401
     29 H2          2.1419  -10.3563   -7.7156 H         1 <0>         0.0619
     30 C21         2.2665  -12.2307   -6.7031 C.ar      1 <0>        -0.0846
     31 C22         1.8719  -12.9334   -5.5800 C.ar      1 <0>        -0.0857
     32 C23         1.8906  -14.3156   -5.5876 C.ar      1 <0>        -0.1219
     33 C24         2.3036  -14.9951   -6.7184 C.ar      1 <0>        -0.1152
     34 C25         2.6974  -14.2923   -7.8418 C.ar      1 <0>        -0.1223
     35 C26         2.6746  -12.9102   -7.8356 C.ar      1 <0>        -0.1118
     36 O6          1.1436  -10.2667   -5.9090 O.3       1 <0>        -0.5430
     37 H3          1.0039    1.9031    0.0027 H         1 <0>         0.0532
     38 H4         -0.5459    1.8868   -0.8726 H         1 <0>         0.0531
     39 H5         -0.5289    1.8773    0.9072 H         1 <0>         0.0534
     40 H6          0.5293   -0.3651    0.8851 H         1 <0>         0.0604
     41 H7         -1.0205   -0.3814    0.0098 H         1 <0>         0.0604
     42 H8          0.1910   -0.1364   -2.1398 H         1 <0>         0.0602
     43 H9          1.7408   -0.1202   -1.2645 H         1 <0>         0.0603
     44 H10         1.2661   -2.3884   -0.3821 H         1 <0>         0.0610
     45 H11        -0.2836   -2.4046   -1.2575 H         1 <0>         0.0609
     46 H12         0.9279   -2.1597   -3.4071 H         1 <0>         0.0602
     47 H13         2.4777   -2.1435   -2.5317 H         1 <0>         0.0603
     48 H14         2.0030   -4.4117   -1.6494 H         1 <0>         0.0623
     49 H15         0.4533   -4.4279   -2.5247 H         1 <0>         0.0622
     50 H16         1.6648   -4.1829   -4.6743 H         1 <0>         0.0612
     51 H17         3.2146   -4.1667   -3.7990 H         1 <0>         0.0615
     52 H18         2.7399   -6.4349   -2.9166 H         1 <0>         0.0704
     53 H19         1.1901   -6.4511   -3.7919 H         1 <0>         0.0703
     54 H20         2.4017   -6.2062   -5.9415 H         1 <0>         0.0921
     55 H21         3.9515   -6.1900   -5.0662 H         1 <0>         0.0941
     56 H22         3.9388   -8.2400   -6.8155 H         1 <0>         0.3982
     57 H23         4.8005  -11.7747   -6.8700 H         1 <0>         0.0944
     58 H24         4.5838  -10.3967   -7.9756 H         1 <0>         0.0390
     59 H25         5.9128   -9.0819   -6.4227 H         1 <0>         0.3516
     60 H26         6.9830  -11.5729   -7.5229 H         1 <0>         0.1025
     61 H27         6.3702   -9.4240   -8.9833 H         1 <0>         0.1262
     62 H28        10.0304   -8.5856   -7.6771 H         1 <0>         0.0801
     63 H29         9.4901  -11.5806   -7.8318 H         1 <0>         0.0740
     64 H30         8.3737  -11.2043   -5.5848 H         1 <0>         0.0789
     65 H31         9.2491   -9.0127   -5.2025 H         1 <0>         0.3837
     66 H32        11.6100  -10.8578   -6.9786 H         1 <0>         0.3903
     67 H33        10.8246   -9.0542   -9.8748 H         1 <0>         0.3810
     68 H34         8.7751   -7.3847   -9.9069 H         1 <0>         0.0575
     69 H35         8.9808   -8.8473  -10.9001 H         1 <0>         0.0604
     70 H36         6.9379   -7.7138  -11.3975 H         1 <0>         0.3855
     71 H37         1.5492  -12.4026   -4.6965 H         1 <0>         0.1297
     72 H38         1.5830  -14.8647   -4.7100 H         1 <0>         0.1234
     73 H39         2.3189  -16.0750   -6.7241 H         1 <0>         0.1222
     74 H40         3.0204  -14.8231   -8.7251 H         1 <0>         0.1232
     75 H41         2.9787  -12.3611   -8.7146 H         1 <0>         0.1201
     76 H42         1.0684   -9.3039   -5.8593 H         1 <0>         0.3749
@<TRIPOS>BOND
     1    1    2 1
     2    1   37 1
     3    1   38 1
     4    1   39 1
     5    2    3 1
     6    2   40 1
     7    2   41 1
     8    3    4 1
     9    3   42 1
    10    3   43 1
    11    4    5 1
    12    4   44 1
    13    4   45 1
    14    5    6 1
    15    5   46 1
    16    5   47 1
    17    6    7 1
    18    6   48 1
    19    6   49 1
    20    7    8 1
    21    7   50 1
    22    7   51 1
    23    8    9 1
    24    8   52 1
    25    8   53 1
    26    9   10 1
    27    9   54 1
    28    9   55 1
    29   10   11 2
    30   10   12 am
    31   12   13 1
    32   12   56 1
    33   13   14 1
    34   13   15 1
    35   13   28 1
    36   15   16 1
    37   15   57 1
    38   15   58 1
    39   16   17 1
    40   16   59 1
    41   17   22 1
    42   17   18 1
    43   17   60 1
    44   18   19 2
    45   18   61 1
    46   19   20 1
    47   19   26 1
    48   20   21 1
    49   20   25 1
    50   20   62 1
    51   21   22 1
    52   21   24 1
    53   21   63 1
    54   22   23 1
    55   22   64 1
    56   23   65 1
    57   24   66 1
    58   25   67 1
    59   26   27 1
    60   26   68 1
    61   26   69 1
    62   27   70 1
    63   28   29 1
    64   28   30 1
    65   28   36 1
    66   30   35 ar
    67   30   31 ar
    68   31   32 ar
    69   31   71 1
    70   32   33 ar
    71   32   72 1
    72   33   34 ar
    73   33   73 1
    74   34   35 ar
    75   34   74 1
    76   35   75 1
    77   36   76 1
@<TRIPOS>MOLECULE
CHEMBL60801__28
   77    78     0     0     0
SMALL
USER_CHARGES

@<TRIPOS>ATOM
      1 C1         -0.0187    1.5258    0.0104 C.3       1 <0>        -0.1550
      2 C2          0.0021   -0.0041    0.0020 C.3       1 <0>        -0.1264
      3 C3         -1.4333   -0.5336    0.0129 C.3       1 <0>        -0.1210
      4 C4         -1.4126   -2.0635    0.0045 C.3       1 <0>        -0.1219
      5 C5         -2.8479   -2.5931    0.0153 C.3       1 <0>        -0.1199
      6 C6         -2.8272   -4.1229    0.0069 C.3       1 <0>        -0.1202
      7 C7         -4.2626   -4.6525    0.0178 C.3       1 <0>        -0.1195
      8 C8         -4.2418   -6.1823    0.0094 C.3       1 <0>        -0.1044
      9 C9         -5.6772   -6.7119    0.0202 C.3       1 <0>        -0.1393
     10 C10        -5.6568   -8.2187    0.0119 C.2       1 <0>         0.5153
     11 O1         -4.5984   -8.8108   -0.0014 O.2       1 <0>        -0.4890
     12 N1         -6.8147   -8.9084    0.0193 N.am      1 <0>        -0.7596
     13 C11        -6.7948  -10.3733    0.0112 C.3       1 <0>         0.0943
     14 H1         -5.9538  -10.7220   -0.5882 H         1 <0>         0.1239
     15 C12        -8.1009  -10.8977   -0.5888 C.3       1 <0>        -0.0182
     16 N2         -8.3005  -10.3073   -1.9190 N.4       1 <0>        -0.5024
     17 C13        -9.5545  -10.8109   -2.4951 C.3       1 <0>         0.0837
     18 C14       -10.7093  -10.3434   -1.6585 C.2       1 <0>        -0.1909
     19 C15       -11.8207   -9.8914   -2.1442 C.2       1 <0>        -0.0857
     20 C16       -12.1057   -9.7616   -3.6118 C.3       1 <0>         0.0998
     21 C17       -11.1174  -10.6077   -4.4175 C.3       1 <0>         0.0932
     22 C18        -9.6982  -10.2934   -3.9280 C.3       1 <0>         0.0972
     23 O2         -8.7444  -10.9426   -4.7711 O.3       1 <0>        -0.5534
     24 O3        -11.3983  -11.9945   -4.2181 O.3       1 <0>        -0.5473
     25 O4        -13.4372  -10.2077   -3.8770 O.3       1 <0>        -0.5488
     26 C19       -12.8950   -9.4686   -1.1756 C.3       1 <0>         0.0939
     27 O5        -12.4347   -9.6670    0.1626 O.3       1 <0>        -0.5720
     28 C20        -6.6485  -10.8892    1.4442 C.3       1 <0>         0.1458
     29 H2         -6.5445  -11.9742    1.4308 H         1 <0>         0.1253
     30 C21        -5.4263  -10.2752    2.0768 C.ar      1 <0>        -0.1136
     31 C22        -5.5095   -9.0337    2.6790 C.ar      1 <0>        -0.1117
     32 C23        -4.3884   -8.4704    3.2593 C.ar      1 <0>        -0.1113
     33 C24        -3.1842   -9.1488    3.2378 C.ar      1 <0>        -0.1044
     34 C25        -3.1012  -10.3907    2.6364 C.ar      1 <0>        -0.1056
     35 C26        -4.2233  -10.9559    2.0599 C.ar      1 <0>        -0.0922
     36 O6         -7.8071  -10.5310    2.2001 O.3       1 <0>        -0.5440
     37 H3          1.0039    1.9031    0.0027 H         1 <0>         0.0549
     38 H4         -0.5459    1.8868   -0.8726 H         1 <0>         0.0534
     39 H5         -0.5289    1.8773    0.9072 H         1 <0>         0.0537
     40 H6          0.5123   -0.3556   -0.8948 H         1 <0>         0.0605
     41 H7          0.5293   -0.3651    0.8851 H         1 <0>         0.0608
     42 H8         -1.9435   -0.1821    0.9097 H         1 <0>         0.0608
     43 H9         -1.9605   -0.1726   -0.8702 H         1 <0>         0.0603
     44 H10        -0.9024   -2.4150   -0.8923 H         1 <0>         0.0609
     45 H11        -0.8854   -2.4246    0.8875 H         1 <0>         0.0614
     46 H12        -3.3581   -2.2415    0.9121 H         1 <0>         0.0609
     47 H13        -3.3751   -2.2320   -0.8677 H         1 <0>         0.0602
     48 H14        -2.3170   -4.4744   -0.8899 H         1 <0>         0.0619
     49 H15        -2.3000   -4.4840    0.8900 H         1 <0>         0.0628
     50 H16        -4.7728   -4.3010    0.9146 H         1 <0>         0.0626
     51 H17        -4.7898   -4.2914   -0.8653 H         1 <0>         0.0610
     52 H18        -3.7316   -6.5338   -0.8874 H         1 <0>         0.0692
     53 H19        -3.7146   -6.5434    0.8924 H         1 <0>         0.0732
     54 H20        -6.1874   -6.3604    0.9170 H         1 <0>         0.0963
     55 H21        -6.2044   -6.3508   -0.8628 H         1 <0>         0.0921
     56 H22        -7.6612   -8.4349    0.0299 H         1 <0>         0.3990
     57 H23        -8.0503  -11.9830   -0.6768 H         1 <0>         0.1518
     58 H24        -8.9339  -10.6242    0.0588 H         1 <0>         0.1498
     59 H25        -8.3473   -9.3027   -1.8375 H         1 <0>         0.4192
     60 H26        -9.5357  -11.9007   -2.5047 H         1 <0>         0.1647
     61 H27       -10.6068  -10.3873   -0.5842 H         1 <0>         0.1572
     62 H28       -12.0114   -8.7167   -3.9072 H         1 <0>         0.0904
     63 H29       -11.2027  -10.3619   -5.4760 H         1 <0>         0.0919
     64 H30        -9.5347   -9.2159   -3.9465 H         1 <0>         0.0949
     65 H31        -8.7804  -10.6608   -5.6954 H         1 <0>         0.4083
     66 H32       -12.2873  -12.2591   -4.4917 H         1 <0>         0.4019
     67 H33       -14.1199   -9.7091   -3.4075 H         1 <0>         0.3940
     68 H34       -13.1268   -8.4144   -1.3276 H         1 <0>         0.0734
     69 H35       -13.7913  -10.0656   -1.3439 H         1 <0>         0.0768
     70 H36       -13.0766   -9.4154    0.8407 H         1 <0>         0.3993
     71 H37        -6.4504   -8.5036    2.6958 H         1 <0>         0.1091
     72 H38        -4.4533   -7.5002    3.7292 H         1 <0>         0.1206
     73 H39        -2.3082   -8.7085    3.6906 H         1 <0>         0.1228
     74 H40        -2.1603  -10.9206    2.6193 H         1 <0>         0.1235
     75 H41        -4.1593  -11.9278    1.5933 H         1 <0>         0.1186
     76 H42        -7.9621   -9.5781    2.2544 H         1 <0>         0.3749
     77 H43        -7.5294  -10.5605   -2.5185 H         1 <0>         0.4363
@<TRIPOS>BOND
     1    1    2 1
     2    1   37 1
     3    1   38 1
     4    1   39 1
     5    2    3 1
     6    2   40 1
     7    2   41 1
     8    3    4 1
     9    3   42 1
    10    3   43 1
    11    4    5 1
    12    4   44 1
    13    4   45 1
    14    5    6 1
    15    5   46 1
    16    5   47 1
    17    6    7 1
    18    6   48 1
    19    6   49 1
    20    7    8 1
    21    7   50 1
    22    7   51 1
    23    8    9 1
    24    8   52 1
    25    8   53 1
    26    9   10 1
    27    9   54 1
    28    9   55 1
    29   10   11 2
    30   10   12 am
    31   12   13 1
    32   12   56 1
    33   13   14 1
    34   13   15 1
    35   13   28 1
    36   15   16 1
    37   15   57 1
    38   15   58 1
    39   16   17 1
    40   16   59 1
    41   16   77 1
    42   17   22 1
    43   17   18 1
    44   17   60 1
    45   18   19 2
    46   18   61 1
    47   19   20 1
    48   19   26 1
    49   20   21 1
    50   20   25 1
    51   20   62 1
    52   21   22 1
    53   21   24 1
    54   21   63 1
    55   22   23 1
    56   22   64 1
    57   23   65 1
    58   24   66 1
    59   25   67 1
    60   26   27 1
    61   26   68 1
    62   26   69 1
    63   27   70 1
    64   28   29 1
    65   28   30 1
    66   28   36 1
    67   30   35 ar
    68   30   31 ar
    69   31   32 ar
    70   31   71 1
    71   32   33 ar
    72   32   72 1
    73   33   34 ar
    74   33   73 1
    75   34   35 ar
    76   34   74 1
    77   35   75 1
    78   36   76 1
@<TRIPOS>MOLECULE
CHEMBL60801__29
   76    77     0     0     0
SMALL
USER_CHARGES

@<TRIPOS>ATOM
      1 C1         -0.0187    1.5258    0.0104 C.3       1 <0>        -0.1542
      2 C2          0.0021   -0.0041    0.0020 C.3       1 <0>        -0.1265
      3 C3          0.7182   -0.4975   -1.2568 C.3       1 <0>        -0.1209
      4 C4          0.7390   -2.0273   -1.2652 C.3       1 <0>        -0.1218
      5 C5          1.4551   -2.5207   -2.5240 C.3       1 <0>        -0.1198
      6 C6          1.4758   -4.0506   -2.5324 C.3       1 <0>        -0.1207
      7 C7          2.1920   -4.5440   -3.7912 C.3       1 <0>        -0.1197
      8 C8          2.2127   -6.0738   -3.7996 C.3       1 <0>        -0.1049
      9 C9          2.9289   -6.5673   -5.0584 C.3       1 <0>        -0.1415
     10 C10         2.9493   -8.0741   -5.0667 C.2       1 <0>         0.5060
     11 O1          2.4411   -8.6925   -4.1555 O.2       1 <0>        -0.5164
     12 N1          3.5323   -8.7345   -6.0867 N.am      1 <0>        -0.7335
     13 C11         3.5522  -10.1994   -6.0948 C.3       1 <0>         0.1213
     14 H1          3.6564  -10.5669   -5.0739 H         1 <0>         0.1085
     15 C12         4.7327  -10.6888   -6.9361 C.3       1 <0>         0.0545
     16 N2          5.9753  -10.0889   -6.4321 N.3       1 <0>        -0.6661
     17 C13         7.1327  -10.5372   -7.2177 C.3       1 <0>         0.1287
     18 C14         7.2684   -9.6762   -8.4393 C.2       1 <0>        -0.1384
     19 C15         8.3950   -9.2174   -8.8817 C.2       1 <0>        -0.1627
     20 C16         9.7218   -9.4735   -8.2288 C.3       1 <0>         0.1162
     21 C17         9.6153  -10.6577   -7.2655 C.3       1 <0>         0.0863
     22 C18         8.3965  -10.4388   -6.3604 C.3       1 <0>         0.1311
     23 O2          8.3666  -11.4424   -5.3436 O.3       1 <0>        -0.5370
     24 O3          9.4511  -11.8676   -8.0079 O.3       1 <0>        -0.5429
     25 O4         10.6953   -9.7660   -9.2332 O.3       1 <0>        -0.5584
     26 C19         8.3729   -8.3730  -10.1297 C.3       1 <0>         0.1070
     27 O5          7.0278   -8.2460  -10.5951 O.3       1 <0>        -0.5688
     28 C20         2.2461  -10.7238   -6.6948 C.3       1 <0>         0.1406
     29 H2          2.1419  -10.3563   -7.7156 H         1 <0>         0.0615
     30 C21         2.2665  -12.2307   -6.7031 C.ar      1 <0>        -0.0851
     31 C22         1.8719  -12.9334   -5.5800 C.ar      1 <0>        -0.0857
     32 C23         1.8906  -14.3156   -5.5876 C.ar      1 <0>        -0.1219
     33 C24         2.3036  -14.9951   -6.7184 C.ar      1 <0>        -0.1147
     34 C25         2.6974  -14.2923   -7.8418 C.ar      1 <0>        -0.1215
     35 C26         2.6746  -12.9102   -7.8356 C.ar      1 <0>        -0.1109
     36 O6          1.1436  -10.2667   -5.9090 O.3       1 <0>        -0.5429
     37 H3          1.0039    1.9031    0.0027 H         1 <0>         0.0531
     38 H4         -0.5459    1.8868   -0.8726 H         1 <0>         0.0532
     39 H5         -0.5289    1.8773    0.9072 H         1 <0>         0.0534
     40 H6          0.5293   -0.3651    0.8851 H         1 <0>         0.0604
     41 H7         -1.0205   -0.3814    0.0098 H         1 <0>         0.0605
     42 H8          0.1910   -0.1364   -2.1398 H         1 <0>         0.0603
     43 H9          1.7408   -0.1202   -1.2645 H         1 <0>         0.0602
     44 H10         1.2661   -2.3884   -0.3821 H         1 <0>         0.0610
     45 H11        -0.2836   -2.4046   -1.2575 H         1 <0>         0.0611
     46 H12         0.9279   -2.1597   -3.4071 H         1 <0>         0.0602
     47 H13         2.4777   -2.1435   -2.5317 H         1 <0>         0.0601
     48 H14         2.0030   -4.4117   -1.6494 H         1 <0>         0.0622
     49 H15         0.4533   -4.4279   -2.5247 H         1 <0>         0.0625
     50 H16         1.6648   -4.1829   -4.6743 H         1 <0>         0.0613
     51 H17         3.2146   -4.1667   -3.7990 H         1 <0>         0.0611
     52 H18         2.7399   -6.4349   -2.9166 H         1 <0>         0.0704
     53 H19         1.1901   -6.4511   -3.7919 H         1 <0>         0.0707
     54 H20         2.4017   -6.2062   -5.9415 H         1 <0>         0.0924
     55 H21         3.9515   -6.1900   -5.0662 H         1 <0>         0.0928
     56 H22         3.9388   -8.2400   -6.8155 H         1 <0>         0.3975
     57 H23         4.8005  -11.7747   -6.8700 H         1 <0>         0.0962
     58 H24         4.5838  -10.3967   -7.9756 H         1 <0>         0.0375
     59 H25         5.9128   -9.0819   -6.4227 H         1 <0>         0.3374
     60 H26         6.9830  -11.5729   -7.5229 H         1 <0>         0.1082
     61 H27         6.3702   -9.4240   -8.9833 H         1 <0>         0.1287
     62 H28        10.0304   -8.5856   -7.6771 H         1 <0>         0.0736
     63 H29        10.5176  -10.7173   -6.6569 H         1 <0>         0.0701
     64 H30         8.4529   -9.4510   -5.9030 H         1 <0>         0.0715
     65 H31         9.1396  -11.4368   -4.7626 H         1 <0>         0.3758
     66 H32        10.1801  -12.0593   -8.6138 H         1 <0>         0.3842
     67 H33        10.8246   -9.0542   -9.8748 H         1 <0>         0.3831
     68 H34         8.7751   -7.3847   -9.9069 H         1 <0>         0.0563
     69 H35         8.9808   -8.8473  -10.9001 H         1 <0>         0.0605
     70 H36         6.9379   -7.7138  -11.3975 H         1 <0>         0.3857
     71 H37         1.5492  -12.4026   -4.6965 H         1 <0>         0.1292
     72 H38         1.5830  -14.8647   -4.7100 H         1 <0>         0.1232
     73 H39         2.3189  -16.0750   -6.7241 H         1 <0>         0.1222
     74 H40         3.0204  -14.8231   -8.7251 H         1 <0>         0.1232
     75 H41         2.9787  -12.3611   -8.7146 H         1 <0>         0.1197
     76 H42         1.0684   -9.3039   -5.8593 H         1 <0>         0.3741
@<TRIPOS>BOND
     1    1    2 1
     2    1   37 1
     3    1   38 1
     4    1   39 1
     5    2    3 1
     6    2   40 1
     7    2   41 1
     8    3    4 1
     9    3   42 1
    10    3   43 1
    11    4    5 1
    12    4   44 1
    13    4   45 1
    14    5    6 1
    15    5   46 1
    16    5   47 1
    17    6    7 1
    18    6   48 1
    19    6   49 1
    20    7    8 1
    21    7   50 1
    22    7   51 1
    23    8    9 1
    24    8   52 1
    25    8   53 1
    26    9   10 1
    27    9   54 1
    28    9   55 1
    29   10   11 2
    30   10   12 am
    31   12   13 1
    32   12   56 1
    33   13   14 1
    34   13   15 1
    35   13   28 1
    36   15   16 1
    37   15   57 1
    38   15   58 1
    39   16   17 1
    40   16   59 1
    41   17   22 1
    42   17   18 1
    43   17   60 1
    44   18   19 2
    45   18   61 1
    46   19   20 1
    47   19   26 1
    48   20   21 1
    49   20   25 1
    50   20   62 1
    51   21   22 1
    52   21   24 1
    53   21   63 1
    54   22   23 1
    55   22   64 1
    56   23   65 1
    57   24   66 1
    58   25   67 1
    59   26   27 1
    60   26   68 1
    61   26   69 1
    62   27   70 1
    63   28   29 1
    64   28   30 1
    65   28   36 1
    66   30   35 ar
    67   30   31 ar
    68   31   32 ar
    69   31   71 1
    70   32   33 ar
    71   32   72 1
    72   33   34 ar
    73   33   73 1
    74   34   35 ar
    75   34   74 1
    76   35   75 1
    77   36   76 1
@<TRIPOS>MOLECULE
CHEMBL60801__30
   77    78     0     0     0
SMALL
USER_CHARGES

@<TRIPOS>ATOM
      1 C1         -0.0187    1.5258    0.0104 C.3       1 <0>        -0.1550
      2 C2          0.0021   -0.0041    0.0020 C.3       1 <0>        -0.1264
      3 C3         -1.4333   -0.5336    0.0129 C.3       1 <0>        -0.1210
      4 C4         -1.4126   -2.0635    0.0045 C.3       1 <0>        -0.1218
      5 C5         -2.8479   -2.5931    0.0153 C.3       1 <0>        -0.1200
      6 C6         -2.8272   -4.1229    0.0069 C.3       1 <0>        -0.1201
      7 C7         -4.2626   -4.6525    0.0178 C.3       1 <0>        -0.1197
      8 C8         -4.2418   -6.1823    0.0094 C.3       1 <0>        -0.1038
      9 C9         -5.6772   -6.7119    0.0202 C.3       1 <0>        -0.1396
     10 C10        -5.6568   -8.2187    0.0119 C.2       1 <0>         0.5166
     11 O1         -4.5984   -8.8108   -0.0014 O.2       1 <0>        -0.4911
     12 N1         -6.8147   -8.9084    0.0193 N.am      1 <0>        -0.7586
     13 C11        -6.7948  -10.3733    0.0112 C.3       1 <0>         0.0947
     14 H1         -5.9538  -10.7220   -0.5882 H         1 <0>         0.1229
     15 C12        -8.1009  -10.8977   -0.5888 C.3       1 <0>        -0.0201
     16 N2         -8.3005  -10.3073   -1.9190 N.4       1 <0>        -0.4996
     17 C13        -9.5545  -10.8109   -2.4951 C.3       1 <0>         0.0870
     18 C14       -10.7093  -10.3434   -1.6585 C.2       1 <0>        -0.1907
     19 C15       -11.8207   -9.8914   -2.1442 C.2       1 <0>        -0.0778
     20 C16       -12.1057   -9.7616   -3.6118 C.3       1 <0>         0.1049
     21 C17       -11.1174  -10.6077   -4.4175 C.3       1 <0>         0.0927
     22 C18        -9.6982  -10.2934   -3.9280 C.3       1 <0>         0.0942
     23 O2         -9.4839   -8.8808   -3.9523 O.3       1 <0>        -0.5626
     24 O3        -11.3983  -11.9945   -4.2181 O.3       1 <0>        -0.5539
     25 O4        -13.4372  -10.2077   -3.8770 O.3       1 <0>        -0.5536
     26 C19       -12.8950   -9.4686   -1.1756 C.3       1 <0>         0.0940
     27 O5        -12.4347   -9.6670    0.1626 O.3       1 <0>        -0.5718
     28 C20        -6.6485  -10.8892    1.4442 C.3       1 <0>         0.1456
     29 H2         -6.5445  -11.9742    1.4308 H         1 <0>         0.1248
     30 C21        -5.4263  -10.2752    2.0768 C.ar      1 <0>        -0.1134
     31 C22        -5.5095   -9.0337    2.6790 C.ar      1 <0>        -0.1114
     32 C23        -4.3884   -8.4704    3.2593 C.ar      1 <0>        -0.1111
     33 C24        -3.1842   -9.1488    3.2378 C.ar      1 <0>        -0.1045
     34 C25        -3.1012  -10.3907    2.6364 C.ar      1 <0>        -0.1058
     35 C26        -4.2233  -10.9559    2.0599 C.ar      1 <0>        -0.0924
     36 O6         -7.8071  -10.5310    2.2001 O.3       1 <0>        -0.5442
     37 H3          1.0039    1.9031    0.0027 H         1 <0>         0.0549
     38 H4         -0.5459    1.8868   -0.8726 H         1 <0>         0.0534
     39 H5         -0.5289    1.8773    0.9072 H         1 <0>         0.0537
     40 H6          0.5123   -0.3556   -0.8948 H         1 <0>         0.0604
     41 H7          0.5293   -0.3651    0.8851 H         1 <0>         0.0607
     42 H8         -1.9435   -0.1821    0.9097 H         1 <0>         0.0608
     43 H9         -1.9605   -0.1726   -0.8702 H         1 <0>         0.0604
     44 H10        -0.9024   -2.4150   -0.8923 H         1 <0>         0.0609
     45 H11        -0.8854   -2.4246    0.8875 H         1 <0>         0.0613
     46 H12        -3.3581   -2.2415    0.9121 H         1 <0>         0.0610
     47 H13        -3.3751   -2.2320   -0.8677 H         1 <0>         0.0603
     48 H14        -2.3170   -4.4744   -0.8899 H         1 <0>         0.0618
     49 H15        -2.3000   -4.4840    0.8900 H         1 <0>         0.0626
     50 H16        -4.7728   -4.3010    0.9146 H         1 <0>         0.0626
     51 H17        -4.7898   -4.2914   -0.8653 H         1 <0>         0.0612
     52 H18        -3.7316   -6.5338   -0.8874 H         1 <0>         0.0689
     53 H19        -3.7146   -6.5434    0.8924 H         1 <0>         0.0728
     54 H20        -6.1874   -6.3604    0.9170 H         1 <0>         0.0959
     55 H21        -6.2044   -6.3508   -0.8628 H         1 <0>         0.0931
     56 H22        -7.6612   -8.4349    0.0299 H         1 <0>         0.4000
     57 H23        -8.0503  -11.9830   -0.6768 H         1 <0>         0.1507
     58 H24        -8.9339  -10.6242    0.0588 H         1 <0>         0.1496
     59 H25        -8.3473   -9.3027   -1.8375 H         1 <0>         0.4300
     60 H26        -9.5357  -11.9007   -2.5047 H         1 <0>         0.1650
     61 H27       -10.6068  -10.3873   -0.5842 H         1 <0>         0.1508
     62 H28       -12.0114   -8.7167   -3.9072 H         1 <0>         0.0919
     63 H29       -11.2027  -10.3619   -5.4760 H         1 <0>         0.0910
     64 H30        -8.9707  -10.7886   -4.5711 H         1 <0>         0.1035
     65 H31        -9.5603   -8.4865   -4.8319 H         1 <0>         0.4113
     66 H32       -12.2873  -12.2591   -4.4917 H         1 <0>         0.4066
     67 H33       -14.1199   -9.7091   -3.4075 H         1 <0>         0.3932
     68 H34       -13.1268   -8.4144   -1.3276 H         1 <0>         0.0718
     69 H35       -13.7913  -10.0656   -1.3439 H         1 <0>         0.0747
     70 H36       -13.0766   -9.4154    0.8407 H         1 <0>         0.3980
     71 H37        -6.4504   -8.5036    2.6958 H         1 <0>         0.1092
     72 H38        -4.4533   -7.5002    3.7292 H         1 <0>         0.1207
     73 H39        -2.3082   -8.7085    3.6906 H         1 <0>         0.1228
     74 H40        -2.1603  -10.9206    2.6193 H         1 <0>         0.1233
     75 H41        -4.1593  -11.9278    1.5933 H         1 <0>         0.1183
     76 H42        -7.9621   -9.5781    2.2544 H         1 <0>         0.3754
     77 H43        -7.5294  -10.5605   -2.5185 H         1 <0>         0.4284
@<TRIPOS>BOND
     1    1    2 1
     2    1   37 1
     3    1   38 1
     4    1   39 1
     5    2    3 1
     6    2   40 1
     7    2   41 1
     8    3    4 1
     9    3   42 1
    10    3   43 1
    11    4    5 1
    12    4   44 1
    13    4   45 1
    14    5    6 1
    15    5   46 1
    16    5   47 1
    17    6    7 1
    18    6   48 1
    19    6   49 1
    20    7    8 1
    21    7   50 1
    22    7   51 1
    23    8    9 1
    24    8   52 1
    25    8   53 1
    26    9   10 1
    27    9   54 1
    28    9   55 1
    29   10   11 2
    30   10   12 am
    31   12   13 1
    32   12   56 1
    33   13   14 1
    34   13   15 1
    35   13   28 1
    36   15   16 1
    37   15   57 1
    38   15   58 1
    39   16   17 1
    40   16   59 1
    41   16   77 1
    42   17   22 1
    43   17   18 1
    44   17   60 1
    45   18   19 2
    46   18   61 1
    47   19   20 1
    48   19   26 1
    49   20   21 1
    50   20   25 1
    51   20   62 1
    52   21   22 1
    53   21   24 1
    54   21   63 1
    55   22   23 1
    56   22   64 1
    57   23   65 1
    58   24   66 1
    59   25   67 1
    60   26   27 1
    61   26   68 1
    62   26   69 1
    63   27   70 1
    64   28   29 1
    65   28   30 1
    66   28   36 1
    67   30   35 ar
    68   30   31 ar
    69   31   32 ar
    70   31   71 1
    71   32   33 ar
    72   32   72 1
    73   33   34 ar
    74   33   73 1
    75   34   35 ar
    76   34   74 1
    77   35   75 1
    78   36   76 1
